lig_CHEMBL3265000
     RDKit          3D

 67 71  0  0  1  0  0  0  0  0999 V2000
    6.3265   -0.7982   17.2376 H   0  0  0  0  0  0  0  0  0  0  0  0
    5.6655   -0.5000   16.4357 C   0  0  0  0  0  0  0  0  0  0  0  0
    5.9298    0.4219   15.4572 C   0  0  0  0  0  0  0  0  0  0  0  0
    6.7924    1.0379   15.2336 H   0  0  0  0  0  0  0  0  0  0  0  0
    4.7784    0.5343   14.7127 N   0  0  0  0  0  0  0  0  0  0  0  0
    3.8596   -0.4009   15.2516 C   0  0  0  0  0  0  0  0  0  0  0  0
    4.4122   -1.0377   16.2759 N   0  0  0  0  0  0  0  0  0  0  0  0
    2.5630   -0.4362   14.6442 C   0  0  0  0  0  0  0  0  0  0  0  0
    1.6230   -1.3337   15.1955 N   0  0  0  0  0  0  0  0  0  0  0  0
    2.0234   -1.9041   15.9260 H   0  0  0  0  0  0  0  0  0  0  0  0
    0.2445   -1.5233   14.9832 C   0  0  0  0  0  0  0  0  0  0  0  0
   -0.3620   -2.5537   15.7317 C   0  0  0  0  0  0  0  0  0  0  0  0
    0.2272   -3.1475   16.4179 H   0  0  0  0  0  0  0  0  0  0  0  0
   -1.7406   -2.8122   15.6174 C   0  0  0  0  0  0  0  0  0  0  0  0
   -2.1856   -3.6009   16.2058 H   0  0  0  0  0  0  0  0  0  0  0  0
   -2.5350   -2.0419   14.7484 C   0  0  0  0  0  0  0  0  0  0  0  0
   -3.8751   -2.3238   14.6386 O   0  0  0  0  0  0  0  0  0  0  0  0
   -4.1935   -3.0734   13.4780 C   0  0  0  0  0  0  0  0  0  0  0  0
   -5.2644   -3.2857   13.4629 H   0  0  0  0  0  0  0  0  0  0  0  0
   -3.9437   -2.5266   12.5667 H   0  0  0  0  0  0  0  0  0  0  0  0
   -3.6577   -4.0232   13.4707 H   0  0  0  0  0  0  0  0  0  0  0  0
   -1.9582   -0.9985   13.9906 C   0  0  0  0  0  0  0  0  0  0  0  0
   -2.8086   -0.2726   13.1735 O   0  0  0  0  0  0  0  0  0  0  0  0
   -2.2330    0.6972   12.3138 C   0  0  0  0  0  0  0  0  0  0  0  0
   -3.0077    1.1163   11.6769 H   0  0  0  0  0  0  0  0  0  0  0  0
   -1.7975    1.5146   12.8836 H   0  0  0  0  0  0  0  0  0  0  0  0
   -1.4755    0.2662   11.6609 H   0  0  0  0  0  0  0  0  0  0  0  0
   -0.5673   -0.7513   14.1173 C   0  0  0  0  0  0  0  0  0  0  0  0
   -0.1243    0.0506   13.5417 H   0  0  0  0  0  0  0  0  0  0  0  0
    2.2485    0.3574   13.6570 N   0  0  0  0  0  0  0  0  0  0  0  0
    3.1713    1.2748   13.1988 C   0  0  0  0  0  0  0  0  0  0  0  0
    2.7049    2.1789   12.1210 C   0  0  0  0  0  0  0  0  0  0  0  0
    3.6109    2.6363   11.1368 C   0  0  0  0  0  0  0  0  0  0  0  0
    4.6464    2.3259   11.1561 H   0  0  0  0  0  0  0  0  0  0  0  0
    3.1763    3.4684   10.0889 C   0  0  0  0  0  0  0  0  0  0  0  0
    3.8685    3.7939    9.3278 H   0  0  0  0  0  0  0  0  0  0  0  0
    1.8266    3.8622   10.0130 C   0  0  0  0  0  0  0  0  0  0  0  0
    1.4915    4.4849    9.1901 H   0  0  0  0  0  0  0  0  0  0  0  0
    0.9081    3.4320   10.9933 C   0  0  0  0  0  0  0  0  0  0  0  0
   -0.5405    3.7800   10.8448 C   0  0  0  0  0  0  0  0  0  0  0  0
   -1.0640    3.7147    9.7296 O   0  0  0  0  0  0  0  0  0  0  0  0
   -1.1607    4.1764   11.9764 N   0  0  0  0  0  0  0  0  0  0  0  0
   -0.5539    4.3326   12.7748 H   0  0  0  0  0  0  0  0  0  0  0  0
   -2.5198    4.5839   12.1269 C   0  0  0  0  0  0  0  0  0  0  0  0
   -3.5511    4.1322   11.2726 C   0  0  0  0  0  0  0  0  0  0  0  0
   -3.3501    3.4325   10.4692 H   0  0  0  0  0  0  0  0  0  0  0  0
   -4.8665    4.5952   11.4388 C   0  0  0  0  0  0  0  0  0  0  0  0
   -5.6293    4.2394   10.7567 H   0  0  0  0  0  0  0  0  0  0  0  0
   -5.1855    5.5113   12.4684 C   0  0  0  0  0  0  0  0  0  0  0  0
   -6.6208    5.9723   12.6130 C   0  0  0  0  0  0  0  0  0  0  0  0
   -7.5178    5.2775   12.1146 O   0  0  0  0  0  0  0  0  0  0  0  0
   -6.7774    7.1826   13.1982 N   0  0  0  0  0  0  0  0  0  0  0  0
   -8.2315    7.8627   13.4281 S   0  0  0  0  0  0  0  0  0  0  0  0
   -8.0989    9.2882   13.7869 O   0  0  0  0  0  0  0  0  0  0  0  0
   -9.1167    7.0656   14.2913 O   0  0  0  0  0  0  0  0  0  0  0  0
   -8.9860    7.8492   11.7601 C   0  0  0  0  0  0  0  0  0  0  0  0
   -9.9352    8.3837   11.8051 H   0  0  0  0  0  0  0  0  0  0  0  0
   -9.1326    6.8020   11.4739 H   0  0  0  0  0  0  0  0  0  0  0  0
   -8.3146    8.3437   11.0540 H   0  0  0  0  0  0  0  0  0  0  0  0
   -4.1673    5.9138   13.3619 C   0  0  0  0  0  0  0  0  0  0  0  0
   -4.3968    6.5747   14.1863 H   0  0  0  0  0  0  0  0  0  0  0  0
   -2.8413    5.4660   13.1847 C   0  0  0  0  0  0  0  0  0  0  0  0
   -2.0740    5.7995   13.8683 H   0  0  0  0  0  0  0  0  0  0  0  0
    1.3556    2.6029   12.0467 C   0  0  0  0  0  0  0  0  0  0  0  0
    0.6459    2.2485   12.7886 H   0  0  0  0  0  0  0  0  0  0  0  0
    4.4514    1.3593   13.6913 C   0  0  0  0  0  0  0  0  0  0  0  0
    5.1998    2.0795   13.3626 H   0  0  0  0  0  0  0  0  0  0  0  0
  1  2  1  0
  2  7  1  0
  2  3  2  0
  3  4  1  0
  3  5  1  0
  5 66  1  0
  5  6  1  0
  6  7  2  0
  6  8  1  0
  8  9  1  0
  8 30  2  0
  9 10  1  0
  9 11  1  0
 11 28  1  0
 11 12  2  0
 12 13  1  0
 12 14  1  0
 14 15  1  0
 14 16  2  0
 16 17  1  0
 16 22  1  0
 17 18  1  0
 18 19  1  0
 18 20  1  0
 18 21  1  0
 22 23  1  0
 22 28  2  0
 23 24  1  0
 24 25  1  0
 24 26  1  0
 24 27  1  0
 28 29  1  0
 30 31  1  0
 31 32  1  0
 31 66  2  0
 32 64  1  0
 32 33  2  0
 33 34  1  0
 33 35  1  0
 35 36  1  0
 35 37  2  0
 37 38  1  0
 37 39  1  0
 39 40  1  0
 39 64  2  0
 40 41  2  0
 40 42  1  0
 42 43  1  0
 42 44  1  0
 44 62  1  0
 44 45  2  0
 45 46  1  0
 45 47  1  0
 47 48  1  0
 47 49  2  0
 49 50  1  0
 49 60  1  0
 50 51  2  0
 50 52  1  0
 52 53  1  0
 53 54  2  0
 53 55  2  0
 53 56  1  0
 56 57  1  0
 56 58  1  0
 56 59  1  0
 60 61  1  0
 60 62  2  0
 62 63  1  0
 64 65  1  0
 66 67  1  0
M  CHG  1  52  -1
M  END
$$$$
lig_CHEMBL3265001
     RDKit          3D

 62 67  0  0  1  0  0  0  0  0999 V2000
    6.2876   -0.8005   17.2781 H   0  0  0  0  0  0  0  0  0  0  0  0
    5.6602   -0.4993   16.4599 C   0  0  0  0  0  0  0  0  0  0  0  0
    5.9161    0.4161   15.4803 C   0  0  0  0  0  0  0  0  0  0  0  0
    6.7629    1.0455   15.2596 H   0  0  0  0  0  0  0  0  0  0  0  0
    4.7590    0.5126   14.7391 N   0  0  0  0  0  0  0  0  0  0  0  0
    3.8361   -0.4045   15.2893 C   0  0  0  0  0  0  0  0  0  0  0  0
    4.3895   -1.0494   16.3157 N   0  0  0  0  0  0  0  0  0  0  0  0
    2.5391   -0.4386   14.6986 C   0  0  0  0  0  0  0  0  0  0  0  0
    1.6017   -1.3334   15.2492 N   0  0  0  0  0  0  0  0  0  0  0  0
    1.9932   -1.9028   15.9916 H   0  0  0  0  0  0  0  0  0  0  0  0
    0.2266   -1.5415   15.0353 C   0  0  0  0  0  0  0  0  0  0  0  0
   -0.3708   -2.5725   15.7899 C   0  0  0  0  0  0  0  0  0  0  0  0
    0.2208   -3.1585   16.4792 H   0  0  0  0  0  0  0  0  0  0  0  0
   -1.7433   -2.8540   15.6692 C   0  0  0  0  0  0  0  0  0  0  0  0
   -2.1773   -3.6472   16.2580 H   0  0  0  0  0  0  0  0  0  0  0  0
   -2.5470   -2.1037   14.7904 C   0  0  0  0  0  0  0  0  0  0  0  0
   -3.8871   -2.3814   14.6994 O   0  0  0  0  0  0  0  0  0  0  0  0
   -4.2332   -3.1354   13.5471 C   0  0  0  0  0  0  0  0  0  0  0  0
   -5.3118   -3.2958   13.5213 H   0  0  0  0  0  0  0  0  0  0  0  0
   -3.9501   -2.6250   12.6257 H   0  0  0  0  0  0  0  0  0  0  0  0
   -3.7534   -4.1151   13.5617 H   0  0  0  0  0  0  0  0  0  0  0  0
   -1.9787   -1.0545   14.0331 C   0  0  0  0  0  0  0  0  0  0  0  0
   -2.8271   -0.3307   13.2189 O   0  0  0  0  0  0  0  0  0  0  0  0
   -2.2504    0.6589   12.3801 C   0  0  0  0  0  0  0  0  0  0  0  0
   -3.0170    1.1012   11.7429 H   0  0  0  0  0  0  0  0  0  0  0  0
   -1.8138    1.4577   12.9818 H   0  0  0  0  0  0  0  0  0  0  0  0
   -1.4873    0.2284   11.7281 H   0  0  0  0  0  0  0  0  0  0  0  0
   -0.5894   -0.7883   14.1591 C   0  0  0  0  0  0  0  0  0  0  0  0
   -0.1602    0.0186   13.5943 H   0  0  0  0  0  0  0  0  0  0  0  0
    2.2233    0.3414   13.7063 N   0  0  0  0  0  0  0  0  0  0  0  0
    3.1513    1.2362   13.2234 C   0  0  0  0  0  0  0  0  0  0  0  0
    2.6950    2.1265   12.1441 C   0  0  0  0  0  0  0  0  0  0  0  0
    3.6011    2.5972   11.1661 C   0  0  0  0  0  0  0  0  0  0  0  0
    4.6369    2.2988   11.1969 H   0  0  0  0  0  0  0  0  0  0  0  0
    3.1735    3.4274   10.1156 C   0  0  0  0  0  0  0  0  0  0  0  0
    3.8821    3.7661    9.3751 H   0  0  0  0  0  0  0  0  0  0  0  0
    1.8208    3.7989   10.0280 C   0  0  0  0  0  0  0  0  0  0  0  0
    1.4930    4.4265    9.2123 H   0  0  0  0  0  0  0  0  0  0  0  0
    0.8963    3.3580   11.0010 C   0  0  0  0  0  0  0  0  0  0  0  0
   -0.5570    3.7053   10.8521 C   0  0  0  0  0  0  0  0  0  0  0  0
   -1.0770    3.6672    9.7351 O   0  0  0  0  0  0  0  0  0  0  0  0
   -1.1885    4.0893   11.9795 N   0  0  0  0  0  0  0  0  0  0  0  0
   -0.5922    4.2396   12.7904 H   0  0  0  0  0  0  0  0  0  0  0  0
   -2.5413    4.5118   12.1104 C   0  0  0  0  0  0  0  0  0  0  0  0
   -3.5877    4.0543   11.2726 C   0  0  0  0  0  0  0  0  0  0  0  0
   -3.4013    3.3387   10.4878 H   0  0  0  0  0  0  0  0  0  0  0  0
   -4.8999    4.5344   11.4507 C   0  0  0  0  0  0  0  0  0  0  0  0
   -5.6770    4.1870   10.7859 H   0  0  0  0  0  0  0  0  0  0  0  0
   -5.2109    5.4577   12.4806 C   0  0  0  0  0  0  0  0  0  0  0  0
   -6.5964    5.9452   12.6899 C   0  0  0  0  0  0  0  0  0  0  0  0
   -6.8740    7.0342   13.4215 N   0  0  0  0  0  0  0  0  0  0  0  0
   -8.2137    7.0706   13.4066 N   0  0  0  0  0  0  0  0  0  0  0  0
   -8.6881    6.0455   12.6835 N   0  0  0  0  0  0  0  0  0  0  0  0
   -7.6723    5.3058   12.2115 N   0  0  0  0  0  0  0  0  0  0  0  0
   -4.1615    5.8687   13.3355 C   0  0  0  0  0  0  0  0  0  0  0  0
   -4.3590    6.5507   14.1481 H   0  0  0  0  0  0  0  0  0  0  0  0
   -2.8449    5.4064   13.1521 C   0  0  0  0  0  0  0  0  0  0  0  0
   -2.0664    5.7398   13.8213 H   0  0  0  0  0  0  0  0  0  0  0  0
    1.3415    2.5279   12.0544 C   0  0  0  0  0  0  0  0  0  0  0  0
    0.6314    2.1718   12.7853 H   0  0  0  0  0  0  0  0  0  0  0  0
    4.4312    1.3246   13.7113 C   0  0  0  0  0  0  0  0  0  0  0  0
    5.1792    2.0318   13.3719 H   0  0  0  0  0  0  0  0  0  0  0  0
  1  2  1  0
  2  7  1  0
  2  3  2  0
  3  4  1  0
  3  5  1  0
  5 61  1  0
  5  6  1  0
  6  7  2  0
  6  8  1  0
  8  9  1  0
  8 30  2  0
  9 10  1  0
  9 11  1  0
 11 28  1  0
 11 12  2  0
 12 13  1  0
 12 14  1  0
 14 15  1  0
 14 16  2  0
 16 17  1  0
 16 22  1  0
 17 18  1  0
 18 19  1  0
 18 20  1  0
 18 21  1  0
 22 23  1  0
 22 28  2  0
 23 24  1  0
 24 25  1  0
 24 26  1  0
 24 27  1  0
 28 29  1  0
 30 31  1  0
 31 32  1  0
 31 61  2  0
 32 59  1  0
 32 33  2  0
 33 34  1  0
 33 35  1  0
 35 36  1  0
 35 37  2  0
 37 38  1  0
 37 39  1  0
 39 40  1  0
 39 59  2  0
 40 41  2  0
 40 42  1  0
 42 43  1  0
 42 44  1  0
 44 57  1  0
 44 45  2  0
 45 46  1  0
 45 47  1  0
 47 48  1  0
 47 49  2  0
 49 50  1  0
 49 55  1  0
 50 54  1  0
 50 51  2  0
 51 52  1  0
 52 53  2  0
 53 54  1  0
 55 56  1  0
 55 57  2  0
 57 58  1  0
 59 60  1  0
 61 62  1  0
M  CHG  1  54  -1
M  END
$$$$
lig_CHEMBL3264998
     RDKit          3D

 63 67  0  0  1  0  0  0  0  0999 V2000
    6.2804   -0.8033   17.2605 H   0  0  0  0  0  0  0  0  0  0  0  0
    5.6504   -0.4968   16.4417 C   0  0  0  0  0  0  0  0  0  0  0  0
    5.9071    0.4242   15.4680 C   0  0  0  0  0  0  0  0  0  0  0  0
    6.7595    1.0544   15.2555 H   0  0  0  0  0  0  0  0  0  0  0  0
    4.7536    0.5233   14.7233 N   0  0  0  0  0  0  0  0  0  0  0  0
    3.8347   -0.4046   15.2624 C   0  0  0  0  0  0  0  0  0  0  0  0
    4.3864   -1.0495   16.2882 N   0  0  0  0  0  0  0  0  0  0  0  0
    2.5403   -0.4467   14.6647 C   0  0  0  0  0  0  0  0  0  0  0  0
    1.6112   -1.3476   15.2128 N   0  0  0  0  0  0  0  0  0  0  0  0
    2.0090   -1.9039   15.9600 H   0  0  0  0  0  0  0  0  0  0  0  0
    0.2359   -1.5537   15.0101 C   0  0  0  0  0  0  0  0  0  0  0  0
   -0.3614   -2.5901   15.7591 C   0  0  0  0  0  0  0  0  0  0  0  0
    0.2336   -3.1853   16.4372 H   0  0  0  0  0  0  0  0  0  0  0  0
   -1.7387   -2.8577   15.6497 C   0  0  0  0  0  0  0  0  0  0  0  0
   -2.1760   -3.6483   16.2417 H   0  0  0  0  0  0  0  0  0  0  0  0
   -2.5419   -2.0939   14.7824 C   0  0  0  0  0  0  0  0  0  0  0  0
   -3.8832   -2.3676   14.6967 O   0  0  0  0  0  0  0  0  0  0  0  0
   -4.2268   -3.1241   13.5471 C   0  0  0  0  0  0  0  0  0  0  0  0
   -5.2995   -3.3193   13.5453 H   0  0  0  0  0  0  0  0  0  0  0  0
   -3.9804   -2.5980   12.6235 H   0  0  0  0  0  0  0  0  0  0  0  0
   -3.7129   -4.0864   13.5449 H   0  0  0  0  0  0  0  0  0  0  0  0
   -1.9736   -1.0452   14.0292 C   0  0  0  0  0  0  0  0  0  0  0  0
   -2.8271   -0.3122   13.2282 O   0  0  0  0  0  0  0  0  0  0  0  0
   -2.2601    0.6702   12.3723 C   0  0  0  0  0  0  0  0  0  0  0  0
   -3.0399    1.1005   11.7444 H   0  0  0  0  0  0  0  0  0  0  0  0
   -1.8151    1.4807   12.9498 H   0  0  0  0  0  0  0  0  0  0  0  0
   -1.5081    0.2395   11.7099 H   0  0  0  0  0  0  0  0  0  0  0  0
   -0.5827   -0.7902   14.1434 C   0  0  0  0  0  0  0  0  0  0  0  0
   -0.1553    0.0123   13.5720 H   0  0  0  0  0  0  0  0  0  0  0  0
    2.2243    0.3369   13.6722 N   0  0  0  0  0  0  0  0  0  0  0  0
    3.1472    1.2474   13.1991 C   0  0  0  0  0  0  0  0  0  0  0  0
    2.6913    2.1409   12.1166 C   0  0  0  0  0  0  0  0  0  0  0  0
    3.6011    2.6096   11.1407 C   0  0  0  0  0  0  0  0  0  0  0  0
    4.6385    2.3152   11.1766 H   0  0  0  0  0  0  0  0  0  0  0  0
    3.1737    3.4359   10.0868 C   0  0  0  0  0  0  0  0  0  0  0  0
    3.8827    3.7721    9.3435 H   0  0  0  0  0  0  0  0  0  0  0  0
    1.8205    3.8037    9.9896 C   0  0  0  0  0  0  0  0  0  0  0  0
    1.4951    4.4203    9.1665 H   0  0  0  0  0  0  0  0  0  0  0  0
    0.8954    3.3670   10.9619 C   0  0  0  0  0  0  0  0  0  0  0  0
   -0.5576    3.7031   10.8112 C   0  0  0  0  0  0  0  0  0  0  0  0
   -1.0836    3.6441    9.7005 O   0  0  0  0  0  0  0  0  0  0  0  0
   -1.1778    4.0981   11.9388 N   0  0  0  0  0  0  0  0  0  0  0  0
   -0.5798    4.2289   12.7463 H   0  0  0  0  0  0  0  0  0  0  0  0
   -2.5296    4.5207   12.0932 C   0  0  0  0  0  0  0  0  0  0  0  0
   -3.5785    4.1082   11.2372 C   0  0  0  0  0  0  0  0  0  0  0  0
   -3.3997    3.4190   10.4265 H   0  0  0  0  0  0  0  0  0  0  0  0
   -4.8882    4.5885   11.4286 C   0  0  0  0  0  0  0  0  0  0  0  0
   -5.6719    4.2702   10.7571 H   0  0  0  0  0  0  0  0  0  0  0  0
   -5.1812    5.4603   12.4976 C   0  0  0  0  0  0  0  0  0  0  0  0
   -6.6161    5.9215   12.7304 C   0  0  0  0  0  0  0  0  0  0  0  0
   -6.9236    5.6636   13.7434 H   0  0  0  0  0  0  0  0  0  0  0  0
   -7.2992    5.4095   12.0515 H   0  0  0  0  0  0  0  0  0  0  0  0
   -6.7422    7.4370   12.5379 C   0  0  0  0  0  0  0  0  0  0  0  0
   -7.3720    7.8416   11.5371 O   0  0  0  0  0  0  0  0  0  0  0  0
   -6.2505    8.1683   13.4258 O   0  0  0  0  0  0  0  0  0  0  0  0
   -4.1470    5.8293   13.3843 C   0  0  0  0  0  0  0  0  0  0  0  0
   -4.3608    6.4709   14.2251 H   0  0  0  0  0  0  0  0  0  0  0  0
   -2.8314    5.3716   13.1767 C   0  0  0  0  0  0  0  0  0  0  0  0
   -2.0549    5.6684   13.8667 H   0  0  0  0  0  0  0  0  0  0  0  0
    1.3410    2.5484   12.0241 C   0  0  0  0  0  0  0  0  0  0  0  0
    0.6325    2.1998   12.7614 H   0  0  0  0  0  0  0  0  0  0  0  0
    4.4235    1.3406   13.6981 C   0  0  0  0  0  0  0  0  0  0  0  0
    5.1665    2.0608   13.3723 H   0  0  0  0  0  0  0  0  0  0  0  0
  1  2  1  0
  2  7  1  0
  2  3  2  0
  3  4  1  0
  3  5  1  0
  5 62  1  0
  5  6  1  0
  6  7  2  0
  6  8  1  0
  8  9  1  0
  8 30  2  0
  9 10  1  0
  9 11  1  0
 11 28  1  0
 11 12  2  0
 12 13  1  0
 12 14  1  0
 14 15  1  0
 14 16  2  0
 16 17  1  0
 16 22  1  0
 17 18  1  0
 18 19  1  0
 18 20  1  0
 18 21  1  0
 22 23  1  0
 22 28  2  0
 23 24  1  0
 24 25  1  0
 24 26  1  0
 24 27  1  0
 28 29  1  0
 30 31  1  0
 31 32  1  0
 31 62  2  0
 32 60  1  0
 32 33  2  0
 33 34  1  0
 33 35  1  0
 35 36  1  0
 35 37  2  0
 37 38  1  0
 37 39  1  0
 39 40  1  0
 39 60  2  0
 40 41  2  0
 40 42  1  0
 42 43  1  0
 42 44  1  0
 44 58  1  0
 44 45  2  0
 45 46  1  0
 45 47  1  0
 47 48  1  0
 47 49  2  0
 49 50  1  0
 49 56  1  0
 50 51  1  0
 50 52  1  0
 50 53  1  0
 53 54  2  0
 53 55  1  0
 56 57  1  0
 56 58  2  0
 58 59  1  0
 60 61  1  0
 62 63  1  0
M  CHG  1  55  -1
M  END
$$$$
lig_CHEMBL3264995
     RDKit          3D

 60 64  0  0  1  0  0  0  0  0999 V2000
    6.2756   -0.8030   17.2833 H   0  0  0  0  0  0  0  0  0  0  0  0
    5.6427   -0.4951   16.4680 C   0  0  0  0  0  0  0  0  0  0  0  0
    5.9069    0.4020   15.4734 C   0  0  0  0  0  0  0  0  0  0  0  0
    6.7637    1.0127   15.2378 H   0  0  0  0  0  0  0  0  0  0  0  0
    4.7516    0.5021   14.7303 N   0  0  0  0  0  0  0  0  0  0  0  0
    3.8237   -0.4016   15.2926 C   0  0  0  0  0  0  0  0  0  0  0  0
    4.3713   -1.0376   16.3273 N   0  0  0  0  0  0  0  0  0  0  0  0
    2.5248   -0.4242   14.7095 C   0  0  0  0  0  0  0  0  0  0  0  0
    1.5879   -1.3007   15.2852 N   0  0  0  0  0  0  0  0  0  0  0  0
    2.0021   -1.8669   16.0161 H   0  0  0  0  0  0  0  0  0  0  0  0
    0.2198   -1.5354   15.0509 C   0  0  0  0  0  0  0  0  0  0  0  0
   -0.3766   -2.5742   15.7941 C   0  0  0  0  0  0  0  0  0  0  0  0
    0.2152   -3.1509   16.4912 H   0  0  0  0  0  0  0  0  0  0  0  0
   -1.7470   -2.8601   15.6589 C   0  0  0  0  0  0  0  0  0  0  0  0
   -2.1868   -3.6498   16.2497 H   0  0  0  0  0  0  0  0  0  0  0  0
   -2.5475   -2.1083   14.7794 C   0  0  0  0  0  0  0  0  0  0  0  0
   -3.8882   -2.3829   14.6972 O   0  0  0  0  0  0  0  0  0  0  0  0
   -4.2389   -3.1295   13.5445 C   0  0  0  0  0  0  0  0  0  0  0  0
   -5.3051   -3.3561   13.5660 H   0  0  0  0  0  0  0  0  0  0  0  0
   -4.0305   -2.5765   12.6279 H   0  0  0  0  0  0  0  0  0  0  0  0
   -3.6954   -4.0748   13.5154 H   0  0  0  0  0  0  0  0  0  0  0  0
   -1.9771   -1.0615   14.0222 C   0  0  0  0  0  0  0  0  0  0  0  0
   -2.8207   -0.3381   13.2023 O   0  0  0  0  0  0  0  0  0  0  0  0
   -2.2420    0.6641   12.3780 C   0  0  0  0  0  0  0  0  0  0  0  0
   -3.0106    1.1443   11.7735 H   0  0  0  0  0  0  0  0  0  0  0  0
   -1.7655    1.4404   12.9779 H   0  0  0  0  0  0  0  0  0  0  0  0
   -1.5085    0.2318   11.6960 H   0  0  0  0  0  0  0  0  0  0  0  0
   -0.5891   -0.7943   14.1582 C   0  0  0  0  0  0  0  0  0  0  0  0
   -0.1498    0.0004   13.5854 H   0  0  0  0  0  0  0  0  0  0  0  0
    2.2097    0.3542   13.7151 N   0  0  0  0  0  0  0  0  0  0  0  0
    3.1466    1.2340   13.2137 C   0  0  0  0  0  0  0  0  0  0  0  0
    2.6891    2.1273   12.1319 C   0  0  0  0  0  0  0  0  0  0  0  0
    3.5975    2.5960   11.1532 C   0  0  0  0  0  0  0  0  0  0  0  0
    4.6359    2.3021   11.1817 H   0  0  0  0  0  0  0  0  0  0  0  0
    3.1655    3.4289   10.1066 C   0  0  0  0  0  0  0  0  0  0  0  0
    3.8671    3.7676    9.3586 H   0  0  0  0  0  0  0  0  0  0  0  0
    1.8135    3.8018   10.0190 C   0  0  0  0  0  0  0  0  0  0  0  0
    1.4816    4.4179    9.1958 H   0  0  0  0  0  0  0  0  0  0  0  0
    0.8897    3.3668   10.9920 C   0  0  0  0  0  0  0  0  0  0  0  0
   -0.5608    3.7212   10.8435 C   0  0  0  0  0  0  0  0  0  0  0  0
   -1.0845    3.7032    9.7285 O   0  0  0  0  0  0  0  0  0  0  0  0
   -1.1869    4.0943   11.9743 N   0  0  0  0  0  0  0  0  0  0  0  0
   -0.5914    4.2236   12.7857 H   0  0  0  0  0  0  0  0  0  0  0  0
   -2.5360    4.5238   12.1137 C   0  0  0  0  0  0  0  0  0  0  0  0
   -3.5931    4.0642   11.2904 C   0  0  0  0  0  0  0  0  0  0  0  0
   -3.4183    3.3418   10.5069 H   0  0  0  0  0  0  0  0  0  0  0  0
   -4.9056    4.5452   11.4820 C   0  0  0  0  0  0  0  0  0  0  0  0
   -5.6984    4.1871   10.8416 H   0  0  0  0  0  0  0  0  0  0  0  0
   -5.1898    5.4803   12.5056 C   0  0  0  0  0  0  0  0  0  0  0  0
   -6.5886    5.9943   12.7222 C   0  0  0  0  0  0  0  0  0  0  0  0
   -7.5251    5.4753   12.0759 O   0  0  0  0  0  0  0  0  0  0  0  0
   -6.7720    6.9041   13.5655 O   0  0  0  0  0  0  0  0  0  0  0  0
   -4.1393    5.9017   13.3459 C   0  0  0  0  0  0  0  0  0  0  0  0
   -4.3410    6.5902   14.1519 H   0  0  0  0  0  0  0  0  0  0  0  0
   -2.8270    5.4308   13.1508 C   0  0  0  0  0  0  0  0  0  0  0  0
   -2.0415    5.7688   13.8105 H   0  0  0  0  0  0  0  0  0  0  0  0
    1.3375    2.5385   12.0473 C   0  0  0  0  0  0  0  0  0  0  0  0
    0.6339    2.1867   12.7882 H   0  0  0  0  0  0  0  0  0  0  0  0
    4.4325    1.3040   13.6900 C   0  0  0  0  0  0  0  0  0  0  0  0
    5.1941    1.9923   13.3402 H   0  0  0  0  0  0  0  0  0  0  0  0
  1  2  1  0
  2  7  1  0
  2  3  2  0
  3  4  1  0
  3  5  1  0
  5 59  1  0
  5  6  1  0
  6  7  2  0
  6  8  1  0
  8  9  1  0
  8 30  2  0
  9 10  1  0
  9 11  1  0
 11 28  1  0
 11 12  2  0
 12 13  1  0
 12 14  1  0
 14 15  1  0
 14 16  2  0
 16 17  1  0
 16 22  1  0
 17 18  1  0
 18 19  1  0
 18 20  1  0
 18 21  1  0
 22 23  1  0
 22 28  2  0
 23 24  1  0
 24 25  1  0
 24 26  1  0
 24 27  1  0
 28 29  1  0
 30 31  1  0
 31 32  1  0
 31 59  2  0
 32 57  1  0
 32 33  2  0
 33 34  1  0
 33 35  1  0
 35 36  1  0
 35 37  2  0
 37 38  1  0
 37 39  1  0
 39 40  1  0
 39 57  2  0
 40 41  2  0
 40 42  1  0
 42 43  1  0
 42 44  1  0
 44 55  1  0
 44 45  2  0
 45 46  1  0
 45 47  1  0
 47 48  1  0
 47 49  2  0
 49 50  1  0
 49 53  1  0
 50 51  2  0
 50 52  1  0
 53 54  1  0
 53 55  2  0
 55 56  1  0
 57 58  1  0
 59 60  1  0
M  CHG  1  52  -1
M  END
$$$$
lig_CHEMBL3265002
     RDKit          3D

 65 70  0  0  1  0  0  0  0  0999 V2000
   -8.8829    7.6122   14.0551 H   0  0  0  0  0  0  0  0  0  0  0  0
   -8.3252    6.9433   13.4177 C   0  0  0  0  0  0  0  0  0  0  0  0
   -8.7716    6.1092   12.4220 C   0  0  0  0  0  0  0  0  0  0  0  0
   -9.7623    5.9129   12.0336 H   0  0  0  0  0  0  0  0  0  0  0  0
   -7.6366    5.4798   11.9419 N   0  0  0  0  0  0  0  0  0  0  0  0
   -7.6137    4.7966   11.2005 H   0  0  0  0  0  0  0  0  0  0  0  0
   -6.5741    5.9199   12.6307 C   0  0  0  0  0  0  0  0  0  0  0  0
   -5.2017    5.4605   12.4419 C   0  0  0  0  0  0  0  0  0  0  0  0
   -4.1717    5.8949   13.3053 C   0  0  0  0  0  0  0  0  0  0  0  0
   -4.3847    6.5755   14.1172 H   0  0  0  0  0  0  0  0  0  0  0  0
   -2.8501    5.4448   13.1216 C   0  0  0  0  0  0  0  0  0  0  0  0
   -2.0787    5.7897   13.7955 H   0  0  0  0  0  0  0  0  0  0  0  0
   -2.5359    4.5491   12.0814 C   0  0  0  0  0  0  0  0  0  0  0  0
   -1.1826    4.1348   11.9471 N   0  0  0  0  0  0  0  0  0  0  0  0
   -0.5867    4.2880   12.7525 H   0  0  0  0  0  0  0  0  0  0  0  0
   -0.5604    3.7156   10.8278 C   0  0  0  0  0  0  0  0  0  0  0  0
   -1.0867    3.6405    9.7172 O   0  0  0  0  0  0  0  0  0  0  0  0
    0.8897    3.3772   10.9789 C   0  0  0  0  0  0  0  0  0  0  0  0
    1.8095    3.8059   10.0020 C   0  0  0  0  0  0  0  0  0  0  0  0
    1.4800    4.4221    9.1776 H   0  0  0  0  0  0  0  0  0  0  0  0
    3.1624    3.4365   10.0905 C   0  0  0  0  0  0  0  0  0  0  0  0
    3.8689    3.7729    9.3430 H   0  0  0  0  0  0  0  0  0  0  0  0
    3.5940    2.6095   11.1436 C   0  0  0  0  0  0  0  0  0  0  0  0
    4.6306    2.3100   11.1734 H   0  0  0  0  0  0  0  0  0  0  0  0
    2.6873    2.1505   12.1273 C   0  0  0  0  0  0  0  0  0  0  0  0
    3.1433    1.2592   13.2096 C   0  0  0  0  0  0  0  0  0  0  0  0
    4.4216    1.3430   13.6989 C   0  0  0  0  0  0  0  0  0  0  0  0
    5.1709    2.0535   13.3667 H   0  0  0  0  0  0  0  0  0  0  0  0
    4.7497    0.5228   14.7228 N   0  0  0  0  0  0  0  0  0  0  0  0
    3.8342   -0.4039   15.2652 C   0  0  0  0  0  0  0  0  0  0  0  0
    4.3880   -1.0491   16.2893 N   0  0  0  0  0  0  0  0  0  0  0  0
    5.6535   -0.4977   16.4371 C   0  0  0  0  0  0  0  0  0  0  0  0
    6.2866   -0.8002   17.2539 H   0  0  0  0  0  0  0  0  0  0  0  0
    5.9087    0.4208   15.4604 C   0  0  0  0  0  0  0  0  0  0  0  0
    6.7599    1.0493   15.2387 H   0  0  0  0  0  0  0  0  0  0  0  0
    2.5396   -0.4404   14.6730 C   0  0  0  0  0  0  0  0  0  0  0  0
    1.6086   -1.3438   15.2171 N   0  0  0  0  0  0  0  0  0  0  0  0
    2.0096   -1.9147   15.9488 H   0  0  0  0  0  0  0  0  0  0  0  0
    0.2307   -1.5456   15.0161 C   0  0  0  0  0  0  0  0  0  0  0  0
   -0.3675   -2.5762   15.7697 C   0  0  0  0  0  0  0  0  0  0  0  0
    0.2233   -3.1698   16.4554 H   0  0  0  0  0  0  0  0  0  0  0  0
   -1.7428   -2.8440   15.6540 C   0  0  0  0  0  0  0  0  0  0  0  0
   -2.1819   -3.6384   16.2473 H   0  0  0  0  0  0  0  0  0  0  0  0
   -2.5447   -2.0885   14.7814 C   0  0  0  0  0  0  0  0  0  0  0  0
   -3.8830   -2.3644   14.6902 O   0  0  0  0  0  0  0  0  0  0  0  0
   -4.2212   -3.1267   13.5427 C   0  0  0  0  0  0  0  0  0  0  0  0
   -5.2960   -3.3135   13.5241 H   0  0  0  0  0  0  0  0  0  0  0  0
   -3.9569   -2.6104   12.6187 H   0  0  0  0  0  0  0  0  0  0  0  0
   -3.7171   -4.0940   13.5546 H   0  0  0  0  0  0  0  0  0  0  0  0
   -1.9766   -1.0421   14.0268 C   0  0  0  0  0  0  0  0  0  0  0  0
   -2.8303   -0.3149   13.2195 O   0  0  0  0  0  0  0  0  0  0  0  0
   -2.2671    0.6676   12.3646 C   0  0  0  0  0  0  0  0  0  0  0  0
   -3.0479    1.0927   11.7343 H   0  0  0  0  0  0  0  0  0  0  0  0
   -1.8303    1.4806   12.9441 H   0  0  0  0  0  0  0  0  0  0  0  0
   -1.5123    0.2385   11.7050 H   0  0  0  0  0  0  0  0  0  0  0  0
   -0.5858   -0.7819   14.1459 C   0  0  0  0  0  0  0  0  0  0  0  0
   -0.1564    0.0237   13.5795 H   0  0  0  0  0  0  0  0  0  0  0  0
    2.2187    0.3535   13.6886 N   0  0  0  0  0  0  0  0  0  0  0  0
    1.3364    2.5630   12.0418 C   0  0  0  0  0  0  0  0  0  0  0  0
    0.6332    2.2182   12.7896 H   0  0  0  0  0  0  0  0  0  0  0  0
   -3.5745    4.0821   11.2419 C   0  0  0  0  0  0  0  0  0  0  0  0
   -3.3836    3.3658   10.4578 H   0  0  0  0  0  0  0  0  0  0  0  0
   -4.8925    4.5443   11.4127 C   0  0  0  0  0  0  0  0  0  0  0  0
   -5.6604    4.1828   10.7431 H   0  0  0  0  0  0  0  0  0  0  0  0
   -6.9450    6.8217   13.5366 N   0  0  0  0  0  0  0  0  0  0  0  0
  1  2  1  0
  2 65  1  0
  2  3  2  0
  3  4  1  0
  3  5  1  0
  5  6  1  0
  5  7  1  0
  7  8  1  0
  7 65  2  0
  8 63  1  0
  8  9  2  0
  9 10  1  0
  9 11  1  0
 11 12  1  0
 11 13  2  0
 13 14  1  0
 13 61  1  0
 14 15  1  0
 14 16  1  0
 16 17  2  0
 16 18  1  0
 18 59  1  0
 18 19  2  0
 19 20  1  0
 19 21  1  0
 21 22  1  0
 21 23  2  0
 23 24  1  0
 23 25  1  0
 25 26  1  0
 25 59  2  0
 26 58  1  0
 26 27  2  0
 27 28  1  0
 27 29  1  0
 29 34  1  0
 29 30  1  0
 30 31  2  0
 30 36  1  0
 31 32  1  0
 32 33  1  0
 32 34  2  0
 34 35  1  0
 36 37  1  0
 36 58  2  0
 37 38  1  0
 37 39  1  0
 39 56  1  0
 39 40  2  0
 40 41  1  0
 40 42  1  0
 42 43  1  0
 42 44  2  0
 44 45  1  0
 44 50  1  0
 45 46  1  0
 46 47  1  0
 46 48  1  0
 46 49  1  0
 50 51  1  0
 50 56  2  0
 51 52  1  0
 52 53  1  0
 52 54  1  0
 52 55  1  0
 56 57  1  0
 59 60  1  0
 61 62  1  0
 61 63  2  0
 63 64  1  0
M  END
$$$$
lig_CHEMBL3264996
     RDKit          3D

 64 68  0  0  1  0  0  0  0  0999 V2000
    6.2773   -0.8022   17.2898 H   0  0  0  0  0  0  0  0  0  0  0  0
    5.6484   -0.4942   16.4772 C   0  0  0  0  0  0  0  0  0  0  0  0
    5.9085    0.4130   15.4912 C   0  0  0  0  0  0  0  0  0  0  0  0
    6.7627    1.0290   15.2607 H   0  0  0  0  0  0  0  0  0  0  0  0
    4.7544    0.5111   14.7430 N   0  0  0  0  0  0  0  0  0  0  0  0
    3.8301   -0.4052   15.2972 C   0  0  0  0  0  0  0  0  0  0  0  0
    4.3792   -1.0422   16.3295 N   0  0  0  0  0  0  0  0  0  0  0  0
    2.5364   -0.4434   14.7006 C   0  0  0  0  0  0  0  0  0  0  0  0
    1.5998   -1.3307   15.2596 N   0  0  0  0  0  0  0  0  0  0  0  0
    1.9992   -1.8909   16.0039 H   0  0  0  0  0  0  0  0  0  0  0  0
    0.2255   -1.5538   15.0413 C   0  0  0  0  0  0  0  0  0  0  0  0
   -0.3705   -2.5888   15.7918 C   0  0  0  0  0  0  0  0  0  0  0  0
    0.2218   -3.1735   16.4824 H   0  0  0  0  0  0  0  0  0  0  0  0
   -1.7449   -2.8641   15.6702 C   0  0  0  0  0  0  0  0  0  0  0  0
   -2.1828   -3.6523   16.2642 H   0  0  0  0  0  0  0  0  0  0  0  0
   -2.5449   -2.1097   14.7898 C   0  0  0  0  0  0  0  0  0  0  0  0
   -3.8856   -2.3831   14.7057 O   0  0  0  0  0  0  0  0  0  0  0  0
   -4.2383   -3.1349   13.5555 C   0  0  0  0  0  0  0  0  0  0  0  0
   -5.3123   -3.3241   13.5514 H   0  0  0  0  0  0  0  0  0  0  0  0
   -3.9890   -2.6056   12.6354 H   0  0  0  0  0  0  0  0  0  0  0  0
   -3.7301   -4.1000   13.5505 H   0  0  0  0  0  0  0  0  0  0  0  0
   -1.9754   -1.0632   14.0314 C   0  0  0  0  0  0  0  0  0  0  0  0
   -2.8190   -0.3377   13.2146 O   0  0  0  0  0  0  0  0  0  0  0  0
   -2.2367    0.6571   12.3863 C   0  0  0  0  0  0  0  0  0  0  0  0
   -2.9989    1.1065   11.7515 H   0  0  0  0  0  0  0  0  0  0  0  0
   -1.7981    1.4508   12.9923 H   0  0  0  0  0  0  0  0  0  0  0  0
   -1.4743    0.2292   11.7332 H   0  0  0  0  0  0  0  0  0  0  0  0
   -0.5864   -0.7977   14.1612 C   0  0  0  0  0  0  0  0  0  0  0  0
   -0.1470    0.0043   13.5982 H   0  0  0  0  0  0  0  0  0  0  0  0
    2.2196    0.3409   13.7101 N   0  0  0  0  0  0  0  0  0  0  0  0
    3.1492    1.2359   13.2248 C   0  0  0  0  0  0  0  0  0  0  0  0
    2.6905    2.1294   12.1464 C   0  0  0  0  0  0  0  0  0  0  0  0
    3.6010    2.6005   11.1709 C   0  0  0  0  0  0  0  0  0  0  0  0
    4.6394    2.3070   11.2031 H   0  0  0  0  0  0  0  0  0  0  0  0
    3.1693    3.4329   10.1238 C   0  0  0  0  0  0  0  0  0  0  0  0
    3.8753    3.7738    9.3807 H   0  0  0  0  0  0  0  0  0  0  0  0
    1.8150    3.8028   10.0360 C   0  0  0  0  0  0  0  0  0  0  0  0
    1.4862    4.4248    9.2140 H   0  0  0  0  0  0  0  0  0  0  0  0
    0.8920    3.3668   11.0098 C   0  0  0  0  0  0  0  0  0  0  0  0
   -0.5546    3.7262   10.8638 C   0  0  0  0  0  0  0  0  0  0  0  0
   -1.0696    3.7178    9.7462 O   0  0  0  0  0  0  0  0  0  0  0  0
   -1.1876    4.0988   11.9937 N   0  0  0  0  0  0  0  0  0  0  0  0
   -0.6002    4.2274   12.8120 H   0  0  0  0  0  0  0  0  0  0  0  0
   -2.5467    4.5118   12.1195 C   0  0  0  0  0  0  0  0  0  0  0  0
   -2.8749    5.4148   13.1528 C   0  0  0  0  0  0  0  0  0  0  0  0
   -2.1075    5.7594   13.8303 H   0  0  0  0  0  0  0  0  0  0  0  0
   -4.2015    5.8644   13.3192 C   0  0  0  0  0  0  0  0  0  0  0  0
   -4.4168    6.5517   14.1248 H   0  0  0  0  0  0  0  0  0  0  0  0
   -5.2255    5.4124   12.4502 C   0  0  0  0  0  0  0  0  0  0  0  0
   -6.6483    5.8422   12.5977 C   0  0  0  0  0  0  0  0  0  0  0  0
   -7.5698    5.3570   11.9387 O   0  0  0  0  0  0  0  0  0  0  0  0
   -6.8382    6.7988   13.5308 O   0  0  0  0  0  0  0  0  0  0  0  0
   -8.1581    7.2659   13.7742 C   0  0  0  0  0  0  0  0  0  0  0  0
   -8.1694    8.0710   14.5058 H   0  0  0  0  0  0  0  0  0  0  0  0
   -8.7901    6.4644   14.1542 H   0  0  0  0  0  0  0  0  0  0  0  0
   -8.6033    7.6498   12.8579 H   0  0  0  0  0  0  0  0  0  0  0  0
   -4.8977    4.4887   11.4293 C   0  0  0  0  0  0  0  0  0  0  0  0
   -5.6611    4.1185   10.7592 H   0  0  0  0  0  0  0  0  0  0  0  0
   -3.5753    4.0323   11.2718 C   0  0  0  0  0  0  0  0  0  0  0  0
   -3.3717    3.3113   10.4918 H   0  0  0  0  0  0  0  0  0  0  0  0
    1.3355    2.5308   12.0592 C   0  0  0  0  0  0  0  0  0  0  0  0
    0.6282    2.1699   12.7927 H   0  0  0  0  0  0  0  0  0  0  0  0
    4.4318    1.3161   13.7067 C   0  0  0  0  0  0  0  0  0  0  0  0
    5.1865    2.0149   13.3667 H   0  0  0  0  0  0  0  0  0  0  0  0
  1  2  1  0
  2  7  1  0
  2  3  2  0
  3  4  1  0
  3  5  1  0
  5 63  1  0
  5  6  1  0
  6  7  2  0
  6  8  1  0
  8  9  1  0
  8 30  2  0
  9 10  1  0
  9 11  1  0
 11 28  1  0
 11 12  2  0
 12 13  1  0
 12 14  1  0
 14 15  1  0
 14 16  2  0
 16 17  1  0
 16 22  1  0
 17 18  1  0
 18 19  1  0
 18 20  1  0
 18 21  1  0
 22 23  1  0
 22 28  2  0
 23 24  1  0
 24 25  1  0
 24 26  1  0
 24 27  1  0
 28 29  1  0
 30 31  1  0
 31 32  1  0
 31 63  2  0
 32 61  1  0
 32 33  2  0
 33 34  1  0
 33 35  1  0
 35 36  1  0
 35 37  2  0
 37 38  1  0
 37 39  1  0
 39 40  1  0
 39 61  2  0
 40 41  2  0
 40 42  1  0
 42 43  1  0
 42 44  1  0
 44 59  1  0
 44 45  2  0
 45 46  1  0
 45 47  1  0
 47 48  1  0
 47 49  2  0
 49 50  1  0
 49 57  1  0
 50 51  2  0
 50 52  1  0
 52 53  1  0
 53 54  1  0
 53 55  1  0
 53 56  1  0
 57 58  1  0
 57 59  2  0
 59 60  1  0
 61 62  1  0
 63 64  1  0
M  END
$$$$
lig_CHEMBL3264997
     RDKit          3D

 60 64  0  0  1  0  0  0  0  0999 V2000
    6.2975   -0.8007   17.2446 H   0  0  0  0  0  0  0  0  0  0  0  0
    5.6607   -0.4889   16.4360 C   0  0  0  0  0  0  0  0  0  0  0  0
    5.9081    0.4403   15.4692 C   0  0  0  0  0  0  0  0  0  0  0  0
    6.7526    1.0767   15.2599 H   0  0  0  0  0  0  0  0  0  0  0  0
    4.7520    0.5394   14.7222 N   0  0  0  0  0  0  0  0  0  0  0  0
    3.8401   -0.4018   15.2555 C   0  0  0  0  0  0  0  0  0  0  0  0
    4.3982   -1.0503   16.2770 N   0  0  0  0  0  0  0  0  0  0  0  0
    2.5473   -0.4404   14.6556 C   0  0  0  0  0  0  0  0  0  0  0  0
    1.6173   -1.3394   15.2079 N   0  0  0  0  0  0  0  0  0  0  0  0
    2.0191   -1.8871   15.9623 H   0  0  0  0  0  0  0  0  0  0  0  0
    0.2393   -1.5436   15.0065 C   0  0  0  0  0  0  0  0  0  0  0  0
   -0.3533   -2.5848   15.7515 C   0  0  0  0  0  0  0  0  0  0  0  0
    0.2422   -3.1799   16.4295 H   0  0  0  0  0  0  0  0  0  0  0  0
   -1.7288   -2.8571   15.6392 C   0  0  0  0  0  0  0  0  0  0  0  0
   -2.1669   -3.6561   16.2182 H   0  0  0  0  0  0  0  0  0  0  0  0
   -2.5344   -2.0857   14.7804 C   0  0  0  0  0  0  0  0  0  0  0  0
   -3.8738   -2.3554   14.6919 O   0  0  0  0  0  0  0  0  0  0  0  0
   -4.2140   -3.1205   13.5458 C   0  0  0  0  0  0  0  0  0  0  0  0
   -5.2922   -3.2777   13.5218 H   0  0  0  0  0  0  0  0  0  0  0  0
   -3.9267   -2.6215   12.6189 H   0  0  0  0  0  0  0  0  0  0  0  0
   -3.7328   -4.0991   13.5747 H   0  0  0  0  0  0  0  0  0  0  0  0
   -1.9705   -1.0330   14.0272 C   0  0  0  0  0  0  0  0  0  0  0  0
   -2.8285   -0.2988   13.2308 O   0  0  0  0  0  0  0  0  0  0  0  0
   -2.2780    0.6741   12.3540 C   0  0  0  0  0  0  0  0  0  0  0  0
   -3.0777    1.0898   11.7402 H   0  0  0  0  0  0  0  0  0  0  0  0
   -1.8274    1.4951   12.9129 H   0  0  0  0  0  0  0  0  0  0  0  0
   -1.5377    0.2426   11.6778 H   0  0  0  0  0  0  0  0  0  0  0  0
   -0.5799   -0.7767   14.1412 C   0  0  0  0  0  0  0  0  0  0  0  0
   -0.1539    0.0290   13.5723 H   0  0  0  0  0  0  0  0  0  0  0  0
    2.2263    0.3437   13.6634 N   0  0  0  0  0  0  0  0  0  0  0  0
    3.1462    1.2604   13.1976 C   0  0  0  0  0  0  0  0  0  0  0  0
    2.6978    2.1520   12.1099 C   0  0  0  0  0  0  0  0  0  0  0  0
    3.6076    2.6081   11.1261 C   0  0  0  0  0  0  0  0  0  0  0  0
    4.6391    2.2971   11.1553 H   0  0  0  0  0  0  0  0  0  0  0  0
    3.1851    3.4441   10.0763 C   0  0  0  0  0  0  0  0  0  0  0  0
    3.8935    3.7727    9.3309 H   0  0  0  0  0  0  0  0  0  0  0  0
    1.8350    3.8276    9.9849 C   0  0  0  0  0  0  0  0  0  0  0  0
    1.5156    4.4535    9.1620 H   0  0  0  0  0  0  0  0  0  0  0  0
    0.9074    3.3930   10.9576 C   0  0  0  0  0  0  0  0  0  0  0  0
   -0.5468    3.7306   10.8070 C   0  0  0  0  0  0  0  0  0  0  0  0
   -1.0806    3.6510    9.6996 O   0  0  0  0  0  0  0  0  0  0  0  0
   -1.1561    4.1453   11.9346 N   0  0  0  0  0  0  0  0  0  0  0  0
   -0.5389    4.2992   12.7277 H   0  0  0  0  0  0  0  0  0  0  0  0
   -2.5110    4.5553   12.0943 C   0  0  0  0  0  0  0  0  0  0  0  0
   -2.8082    5.4589   13.1355 C   0  0  0  0  0  0  0  0  0  0  0  0
   -2.0237    5.8108   13.7896 H   0  0  0  0  0  0  0  0  0  0  0  0
   -4.1283    5.9040   13.3410 C   0  0  0  0  0  0  0  0  0  0  0  0
   -4.3498    6.5917   14.1453 H   0  0  0  0  0  0  0  0  0  0  0  0
   -5.1638    5.4458   12.5040 C   0  0  0  0  0  0  0  0  0  0  0  0
   -6.1749    5.7933   12.6709 H   0  0  0  0  0  0  0  0  0  0  0  0
   -4.8984    4.4966   11.4895 C   0  0  0  0  0  0  0  0  0  0  0  0
   -6.0208    3.9266   10.6657 C   0  0  0  0  0  0  0  0  0  0  0  0
   -5.7668    2.9978    9.8674 O   0  0  0  0  0  0  0  0  0  0  0  0
   -7.1809    4.3607   10.8466 O   0  0  0  0  0  0  0  0  0  0  0  0
   -3.5680    4.0602   11.2907 C   0  0  0  0  0  0  0  0  0  0  0  0
   -3.3756    3.3279   10.5220 H   0  0  0  0  0  0  0  0  0  0  0  0
    1.3502    2.5709   12.0188 C   0  0  0  0  0  0  0  0  0  0  0  0
    0.6386    2.2319   12.7572 H   0  0  0  0  0  0  0  0  0  0  0  0
    4.4170    1.3625   13.7042 C   0  0  0  0  0  0  0  0  0  0  0  0
    5.1541    2.0902   13.3866 H   0  0  0  0  0  0  0  0  0  0  0  0
  1  2  1  0
  2  7  1  0
  2  3  2  0
  3  4  1  0
  3  5  1  0
  5 59  1  0
  5  6  1  0
  6  7  2  0
  6  8  1  0
  8  9  1  0
  8 30  2  0
  9 10  1  0
  9 11  1  0
 11 28  1  0
 11 12  2  0
 12 13  1  0
 12 14  1  0
 14 15  1  0
 14 16  2  0
 16 17  1  0
 16 22  1  0
 17 18  1  0
 18 19  1  0
 18 20  1  0
 18 21  1  0
 22 23  1  0
 22 28  2  0
 23 24  1  0
 24 25  1  0
 24 26  1  0
 24 27  1  0
 28 29  1  0
 30 31  1  0
 31 32  1  0
 31 59  2  0
 32 57  1  0
 32 33  2  0
 33 34  1  0
 33 35  1  0
 35 36  1  0
 35 37  2  0
 37 38  1  0
 37 39  1  0
 39 40  1  0
 39 57  2  0
 40 41  2  0
 40 42  1  0
 42 43  1  0
 42 44  1  0
 44 55  1  0
 44 45  2  0
 45 46  1  0
 45 47  1  0
 47 48  1  0
 47 49  2  0
 49 50  1  0
 49 51  1  0
 51 52  1  0
 51 55  2  0
 52 53  2  0
 52 54  1  0
 55 56  1  0
 57 58  1  0
 59 60  1  0
M  CHG  1  54  -1
M  END
$$$$
lig_CHEMBL3265003
     RDKit          3D

 65 70  0  0  1  0  0  0  0  0999 V2000
   -9.7091    6.7001   12.2549 H   0  0  0  0  0  0  0  0  0  0  0  0
   -8.6893    6.5012   12.5434 C   0  0  0  0  0  0  0  0  0  0  0  0
   -8.3163    6.7700   13.7859 N   0  0  0  0  0  0  0  0  0  0  0  0
   -7.0243    6.3976   13.8106 N   0  0  0  0  0  0  0  0  0  0  0  0
   -6.4800    6.3880   14.6620 H   0  0  0  0  0  0  0  0  0  0  0  0
   -6.5724    5.9208   12.6021 C   0  0  0  0  0  0  0  0  0  0  0  0
   -5.2019    5.4538   12.4270 C   0  0  0  0  0  0  0  0  0  0  0  0
   -4.1720    5.8739   13.2969 C   0  0  0  0  0  0  0  0  0  0  0  0
   -4.3877    6.5649   14.0978 H   0  0  0  0  0  0  0  0  0  0  0  0
   -2.8550    5.4062   13.1311 C   0  0  0  0  0  0  0  0  0  0  0  0
   -2.0853    5.7386   13.8125 H   0  0  0  0  0  0  0  0  0  0  0  0
   -2.5388    4.5100   12.0934 C   0  0  0  0  0  0  0  0  0  0  0  0
   -1.1877    4.0886   11.9665 N   0  0  0  0  0  0  0  0  0  0  0  0
   -0.5887    4.2413   12.7704 H   0  0  0  0  0  0  0  0  0  0  0  0
   -0.5606    3.7008   10.8424 C   0  0  0  0  0  0  0  0  0  0  0  0
   -1.0823    3.6526    9.7287 O   0  0  0  0  0  0  0  0  0  0  0  0
    0.8909    3.3662   11.0001 C   0  0  0  0  0  0  0  0  0  0  0  0
    1.8134    3.8055   10.0287 C   0  0  0  0  0  0  0  0  0  0  0  0
    1.4804    4.4231    9.2067 H   0  0  0  0  0  0  0  0  0  0  0  0
    3.1648    3.4325   10.1144 C   0  0  0  0  0  0  0  0  0  0  0  0
    3.8666    3.7664    9.3650 H   0  0  0  0  0  0  0  0  0  0  0  0
    3.5956    2.5972   11.1603 C   0  0  0  0  0  0  0  0  0  0  0  0
    4.6336    2.2989   11.1857 H   0  0  0  0  0  0  0  0  0  0  0  0
    2.6868    2.1312   12.1404 C   0  0  0  0  0  0  0  0  0  0  0  0
    3.1466    1.2392   13.2201 C   0  0  0  0  0  0  0  0  0  0  0  0
    4.4283    1.3253   13.7031 C   0  0  0  0  0  0  0  0  0  0  0  0
    5.1749    2.0405   13.3707 H   0  0  0  0  0  0  0  0  0  0  0  0
    4.7594    0.5162   14.7315 N   0  0  0  0  0  0  0  0  0  0  0  0
    3.8378   -0.4041   15.2867 C   0  0  0  0  0  0  0  0  0  0  0  0
    4.3963   -1.0450   16.3108 N   0  0  0  0  0  0  0  0  0  0  0  0
    5.6684   -0.5000   16.4493 C   0  0  0  0  0  0  0  0  0  0  0  0
    6.3105   -0.8031   17.2601 H   0  0  0  0  0  0  0  0  0  0  0  0
    5.9202    0.4153   15.4696 C   0  0  0  0  0  0  0  0  0  0  0  0
    6.7717    1.0431   15.2532 H   0  0  0  0  0  0  0  0  0  0  0  0
    2.5394   -0.4405   14.6963 C   0  0  0  0  0  0  0  0  0  0  0  0
    1.6043   -1.3344   15.2472 N   0  0  0  0  0  0  0  0  0  0  0  0
    2.0175   -1.9109   15.9715 H   0  0  0  0  0  0  0  0  0  0  0  0
    0.2276   -1.5482   15.0311 C   0  0  0  0  0  0  0  0  0  0  0  0
   -0.3727   -2.5783   15.7837 C   0  0  0  0  0  0  0  0  0  0  0  0
    0.2216   -3.1541   16.4806 H   0  0  0  0  0  0  0  0  0  0  0  0
   -1.7471   -2.8546   15.6637 C   0  0  0  0  0  0  0  0  0  0  0  0
   -2.1890   -3.6409   16.2589 H   0  0  0  0  0  0  0  0  0  0  0  0
   -2.5510   -2.1029   14.7868 C   0  0  0  0  0  0  0  0  0  0  0  0
   -3.8906   -2.3802   14.6973 O   0  0  0  0  0  0  0  0  0  0  0  0
   -4.2312   -3.1332   13.5442 C   0  0  0  0  0  0  0  0  0  0  0  0
   -5.3060   -3.3107   13.5343 H   0  0  0  0  0  0  0  0  0  0  0  0
   -3.9680   -2.6156   12.6208 H   0  0  0  0  0  0  0  0  0  0  0  0
   -3.7316   -4.1024   13.5520 H   0  0  0  0  0  0  0  0  0  0  0  0
   -1.9820   -1.0531   14.0330 C   0  0  0  0  0  0  0  0  0  0  0  0
   -2.8325   -0.3217   13.2281 O   0  0  0  0  0  0  0  0  0  0  0  0
   -2.2597    0.6614   12.3796 C   0  0  0  0  0  0  0  0  0  0  0  0
   -3.0317    1.0996   11.7503 H   0  0  0  0  0  0  0  0  0  0  0  0
   -1.8132    1.4667   12.9616 H   0  0  0  0  0  0  0  0  0  0  0  0
   -1.5052    0.2341   11.7188 H   0  0  0  0  0  0  0  0  0  0  0  0
   -0.5917   -0.7921   14.1559 C   0  0  0  0  0  0  0  0  0  0  0  0
   -0.1674    0.0164   13.5903 H   0  0  0  0  0  0  0  0  0  0  0  0
    2.2194    0.3409   13.7045 N   0  0  0  0  0  0  0  0  0  0  0  0
    1.3358    2.5412   12.0565 C   0  0  0  0  0  0  0  0  0  0  0  0
    0.6278    2.1872   12.7924 H   0  0  0  0  0  0  0  0  0  0  0  0
   -3.5768    4.0578   11.2446 C   0  0  0  0  0  0  0  0  0  0  0  0
   -3.3911    3.3445   10.4578 H   0  0  0  0  0  0  0  0  0  0  0  0
   -4.8887    4.5403   11.4007 C   0  0  0  0  0  0  0  0  0  0  0  0
   -5.6633    4.1917   10.7330 H   0  0  0  0  0  0  0  0  0  0  0  0
   -7.6392    5.9572   11.7488 C   0  0  0  0  0  0  0  0  0  0  0  0
   -7.6660    5.6424   10.7162 H   0  0  0  0  0  0  0  0  0  0  0  0
  1  2  1  0
  2 64  1  0
  2  3  2  0
  3  4  1  0
  4  5  1  0
  4  6  1  0
  6  7  1  0
  6 64  2  0
  7 62  1  0
  7  8  2  0
  8  9  1  0
  8 10  1  0
 10 11  1  0
 10 12  2  0
 12 13  1  0
 12 60  1  0
 13 14  1  0
 13 15  1  0
 15 16  2  0
 15 17  1  0
 17 58  1  0
 17 18  2  0
 18 19  1  0
 18 20  1  0
 20 21  1  0
 20 22  2  0
 22 23  1  0
 22 24  1  0
 24 25  1  0
 24 58  2  0
 25 57  1  0
 25 26  2  0
 26 27  1  0
 26 28  1  0
 28 33  1  0
 28 29  1  0
 29 30  2  0
 29 35  1  0
 30 31  1  0
 31 32  1  0
 31 33  2  0
 33 34  1  0
 35 36  1  0
 35 57  2  0
 36 37  1  0
 36 38  1  0
 38 55  1  0
 38 39  2  0
 39 40  1  0
 39 41  1  0
 41 42  1  0
 41 43  2  0
 43 44  1  0
 43 49  1  0
 44 45  1  0
 45 46  1  0
 45 47  1  0
 45 48  1  0
 49 50  1  0
 49 55  2  0
 50 51  1  0
 51 52  1  0
 51 53  1  0
 51 54  1  0
 55 56  1  0
 58 59  1  0
 60 61  1  0
 60 62  2  0
 62 63  1  0
 64 65  1  0
M  END
$$$$
lig_CHEMBL3265008
     RDKit          3D

 48 51  0  0  1  0  0  0  0  0999 V2000
    6.2879   -0.8026   17.2381 H   0  0  0  0  0  0  0  0  0  0  0  0
    5.6569   -0.4986   16.4219 C   0  0  0  0  0  0  0  0  0  0  0  0
    5.9163    0.4123   15.4395 C   0  0  0  0  0  0  0  0  0  0  0  0
    6.7729    1.0249   15.2117 H   0  0  0  0  0  0  0  0  0  0  0  0
    4.7584    0.5190   14.6994 N   0  0  0  0  0  0  0  0  0  0  0  0
    3.8359   -0.4021   15.2468 C   0  0  0  0  0  0  0  0  0  0  0  0
    4.3863   -1.0476   16.2748 N   0  0  0  0  0  0  0  0  0  0  0  0
    2.5448   -0.4390   14.6494 C   0  0  0  0  0  0  0  0  0  0  0  0
    1.6224   -1.3538   15.1887 N   0  0  0  0  0  0  0  0  0  0  0  0
    2.0348   -1.9164   15.9256 H   0  0  0  0  0  0  0  0  0  0  0  0
    0.2381   -1.5453   15.0032 C   0  0  0  0  0  0  0  0  0  0  0  0
   -0.3781   -2.5403   15.7915 C   0  0  0  0  0  0  0  0  0  0  0  0
    0.2045   -3.1121   16.5014 H   0  0  0  0  0  0  0  0  0  0  0  0
   -1.7595   -2.7893   15.6856 C   0  0  0  0  0  0  0  0  0  0  0  0
   -2.2157   -3.5498   16.3044 H   0  0  0  0  0  0  0  0  0  0  0  0
   -2.5476   -2.0505   14.7837 C   0  0  0  0  0  0  0  0  0  0  0  0
   -3.8904   -2.3089   14.6953 O   0  0  0  0  0  0  0  0  0  0  0  0
   -4.2312   -3.1014   13.5692 C   0  0  0  0  0  0  0  0  0  0  0  0
   -5.3053   -3.2852   13.5655 H   0  0  0  0  0  0  0  0  0  0  0  0
   -3.9704   -2.6072   12.6321 H   0  0  0  0  0  0  0  0  0  0  0  0
   -3.7242   -4.0669   13.6057 H   0  0  0  0  0  0  0  0  0  0  0  0
   -1.9597   -1.0415   13.9907 C   0  0  0  0  0  0  0  0  0  0  0  0
   -2.7911   -0.3255   13.1497 O   0  0  0  0  0  0  0  0  0  0  0  0
   -2.1997    0.6241   12.2722 C   0  0  0  0  0  0  0  0  0  0  0  0
   -2.9617    1.0585   11.6262 H   0  0  0  0  0  0  0  0  0  0  0  0
   -1.7427    1.4391   12.8353 H   0  0  0  0  0  0  0  0  0  0  0  0
   -1.4475    0.1671   11.6263 H   0  0  0  0  0  0  0  0  0  0  0  0
   -0.5662   -0.8014   14.1070 C   0  0  0  0  0  0  0  0  0  0  0  0
   -0.1268   -0.0241   13.5115 H   0  0  0  0  0  0  0  0  0  0  0  0
    2.2224    0.3547   13.6655 N   0  0  0  0  0  0  0  0  0  0  0  0
    3.1475    1.2594   13.1876 C   0  0  0  0  0  0  0  0  0  0  0  0
    2.6860    2.1606   12.1095 C   0  0  0  0  0  0  0  0  0  0  0  0
    3.5861    2.6256   11.1231 C   0  0  0  0  0  0  0  0  0  0  0  0
    4.6196    2.3194   11.1444 H   0  0  0  0  0  0  0  0  0  0  0  0
    3.1488    3.4554   10.0759 C   0  0  0  0  0  0  0  0  0  0  0  0
    3.8481    3.7857    9.3220 H   0  0  0  0  0  0  0  0  0  0  0  0
    1.7989    3.8374    9.9893 C   0  0  0  0  0  0  0  0  0  0  0  0
    1.4016    4.6231    8.9627 F   0  0  0  0  0  0  0  0  0  0  0  0
    0.8811    3.4037   10.9720 C   0  0  0  0  0  0  0  0  0  0  0  0
   -0.5732    3.7551   10.8685 C   0  0  0  0  0  0  0  0  0  0  0  0
   -1.1787    3.7079    9.7997 O   0  0  0  0  0  0  0  0  0  0  0  0
   -1.1605    4.1390   12.0050 N   0  0  0  0  0  0  0  0  0  0  0  0
   -0.6016    4.2562   12.8440 H   0  0  0  0  0  0  0  0  0  0  0  0
   -2.1316    4.4076   11.9895 H   0  0  0  0  0  0  0  0  0  0  0  0
    1.3368    2.5779   12.0286 C   0  0  0  0  0  0  0  0  0  0  0  0
    0.6351    2.2353   12.7732 H   0  0  0  0  0  0  0  0  0  0  0  0
    4.4325    1.3338   13.6691 C   0  0  0  0  0  0  0  0  0  0  0  0
    5.1880    2.0297   13.3273 H   0  0  0  0  0  0  0  0  0  0  0  0
  1  2  1  0
  2  7  1  0
  2  3  2  0
  3  4  1  0
  3  5  1  0
  5 47  1  0
  5  6  1  0
  6  7  2  0
  6  8  1  0
  8  9  1  0
  8 30  2  0
  9 10  1  0
  9 11  1  0
 11 28  1  0
 11 12  2  0
 12 13  1  0
 12 14  1  0
 14 15  1  0
 14 16  2  0
 16 17  1  0
 16 22  1  0
 17 18  1  0
 18 19  1  0
 18 20  1  0
 18 21  1  0
 22 23  1  0
 22 28  2  0
 23 24  1  0
 24 25  1  0
 24 26  1  0
 24 27  1  0
 28 29  1  0
 30 31  1  0
 31 32  1  0
 31 47  2  0
 32 45  1  0
 32 33  2  0
 33 34  1  0
 33 35  1  0
 35 36  1  0
 35 37  2  0
 37 38  1  0
 37 39  1  0
 39 40  1  0
 39 45  2  0
 40 41  2  0
 40 42  1  0
 42 43  1  0
 42 44  1  0
 45 46  1  0
 47 48  1  0
M  END
$$$$
lig_CHEMBL3265004
     RDKit          3D

 65 70  0  0  1  0  0  0  0  0999 V2000
   -6.6544    6.7093   14.6261 H   0  0  0  0  0  0  0  0  0  0  0  0
   -7.1846    6.4431   13.7375 C   0  0  0  0  0  0  0  0  0  0  0  0
   -8.4763    6.6781   13.6154 N   0  0  0  0  0  0  0  0  0  0  0  0
   -8.7818    6.1727   12.4027 N   0  0  0  0  0  0  0  0  0  0  0  0
   -9.7311    6.1907   12.0480 H   0  0  0  0  0  0  0  0  0  0  0  0
   -7.6929    5.6440   11.7466 C   0  0  0  0  0  0  0  0  0  0  0  0
   -7.7737    5.1863   10.7668 H   0  0  0  0  0  0  0  0  0  0  0  0
   -6.6342    5.8206   12.5952 C   0  0  0  0  0  0  0  0  0  0  0  0
   -5.2326    5.4043   12.4010 C   0  0  0  0  0  0  0  0  0  0  0  0
   -4.2013    5.8536   13.2608 C   0  0  0  0  0  0  0  0  0  0  0  0
   -4.4243    6.5212   14.0805 H   0  0  0  0  0  0  0  0  0  0  0  0
   -2.8662    5.4377   13.0736 C   0  0  0  0  0  0  0  0  0  0  0  0
   -2.0983    5.7989   13.7426 H   0  0  0  0  0  0  0  0  0  0  0  0
   -2.5345    4.5524   12.0284 C   0  0  0  0  0  0  0  0  0  0  0  0
   -1.1735    4.1547   11.8978 N   0  0  0  0  0  0  0  0  0  0  0  0
   -0.5804    4.3100   12.7037 H   0  0  0  0  0  0  0  0  0  0  0  0
   -0.5424    3.7287   10.7863 C   0  0  0  0  0  0  0  0  0  0  0  0
   -1.0593    3.6506    9.6729 O   0  0  0  0  0  0  0  0  0  0  0  0
    0.9077    3.3918   10.9526 C   0  0  0  0  0  0  0  0  0  0  0  0
    1.8339    3.8157    9.9766 C   0  0  0  0  0  0  0  0  0  0  0  0
    1.5083    4.4224    9.1450 H   0  0  0  0  0  0  0  0  0  0  0  0
    3.1843    3.4420   10.0728 C   0  0  0  0  0  0  0  0  0  0  0  0
    3.8909    3.7652    9.3230 H   0  0  0  0  0  0  0  0  0  0  0  0
    3.6125    2.6218   11.1304 C   0  0  0  0  0  0  0  0  0  0  0  0
    4.6479    2.3169   11.1639 H   0  0  0  0  0  0  0  0  0  0  0  0
    2.6993    2.1652   12.1109 C   0  0  0  0  0  0  0  0  0  0  0  0
    3.1554    1.2621   13.1898 C   0  0  0  0  0  0  0  0  0  0  0  0
    4.4354    1.3323   13.6786 C   0  0  0  0  0  0  0  0  0  0  0  0
    5.1911    2.0327   13.3509 H   0  0  0  0  0  0  0  0  0  0  0  0
    4.7585    0.5166   14.7163 N   0  0  0  0  0  0  0  0  0  0  0  0
    3.8367   -0.4064   15.2590 C   0  0  0  0  0  0  0  0  0  0  0  0
    4.3706   -1.0469   16.2945 N   0  0  0  0  0  0  0  0  0  0  0  0
    5.6386   -0.4998   16.4496 C   0  0  0  0  0  0  0  0  0  0  0  0
    6.2666   -0.8105   17.2665 H   0  0  0  0  0  0  0  0  0  0  0  0
    5.9153    0.4014   15.4584 C   0  0  0  0  0  0  0  0  0  0  0  0
    6.7753    1.0131   15.2367 H   0  0  0  0  0  0  0  0  0  0  0  0
    2.5428   -0.4276   14.6576 C   0  0  0  0  0  0  0  0  0  0  0  0
    1.6012   -1.3205   15.2101 N   0  0  0  0  0  0  0  0  0  0  0  0
    2.0100   -1.9022   15.9284 H   0  0  0  0  0  0  0  0  0  0  0  0
    0.2236   -1.5247   14.9950 C   0  0  0  0  0  0  0  0  0  0  0  0
   -0.3793   -2.5591   15.7414 C   0  0  0  0  0  0  0  0  0  0  0  0
    0.2116   -3.1482   16.4283 H   0  0  0  0  0  0  0  0  0  0  0  0
   -1.7549   -2.8236   15.6202 C   0  0  0  0  0  0  0  0  0  0  0  0
   -2.1999   -3.6118   16.2103 H   0  0  0  0  0  0  0  0  0  0  0  0
   -2.5491   -2.0610   14.7433 C   0  0  0  0  0  0  0  0  0  0  0  0
   -3.8888   -2.3309   14.6485 O   0  0  0  0  0  0  0  0  0  0  0  0
   -4.2219   -3.1119   13.5123 C   0  0  0  0  0  0  0  0  0  0  0  0
   -5.2937   -3.3107   13.5069 H   0  0  0  0  0  0  0  0  0  0  0  0
   -3.9696   -2.6021   12.5814 H   0  0  0  0  0  0  0  0  0  0  0  0
   -3.7032   -4.0712   13.5342 H   0  0  0  0  0  0  0  0  0  0  0  0
   -1.9742   -1.0159   13.9912 C   0  0  0  0  0  0  0  0  0  0  0  0
   -2.8213   -0.2842   13.1800 O   0  0  0  0  0  0  0  0  0  0  0  0
   -2.2494    0.6923   12.3240 C   0  0  0  0  0  0  0  0  0  0  0  0
   -3.0285    1.1261   11.6971 H   0  0  0  0  0  0  0  0  0  0  0  0
   -1.7992    1.5022   12.8988 H   0  0  0  0  0  0  0  0  0  0  0  0
   -1.5006    0.2569   11.6605 H   0  0  0  0  0  0  0  0  0  0  0  0
   -0.5862   -0.7608   14.1201 C   0  0  0  0  0  0  0  0  0  0  0  0
   -0.1538    0.0455   13.5564 H   0  0  0  0  0  0  0  0  0  0  0  0
    2.2265    0.3622   13.6751 N   0  0  0  0  0  0  0  0  0  0  0  0
    1.3502    2.5830   12.0209 C   0  0  0  0  0  0  0  0  0  0  0  0
    0.6429    2.2420   12.7634 H   0  0  0  0  0  0  0  0  0  0  0  0
   -3.5678    4.0794   11.1883 C   0  0  0  0  0  0  0  0  0  0  0  0
   -3.3684    3.3791   10.3900 H   0  0  0  0  0  0  0  0  0  0  0  0
   -4.8923    4.5108   11.3658 C   0  0  0  0  0  0  0  0  0  0  0  0
   -5.6567    4.1323   10.7024 H   0  0  0  0  0  0  0  0  0  0  0  0
  1  2  1  0
  2  8  1  0
  2  3  2  0
  3  4  1  0
  4  5  1  0
  4  6  1  0
  6  7  1  0
  6  8  2  0
  8  9  1  0
  9 64  1  0
  9 10  2  0
 10 11  1  0
 10 12  1  0
 12 13  1  0
 12 14  2  0
 14 15  1  0
 14 62  1  0
 15 16  1  0
 15 17  1  0
 17 18  2  0
 17 19  1  0
 19 60  1  0
 19 20  2  0
 20 21  1  0
 20 22  1  0
 22 23  1  0
 22 24  2  0
 24 25  1  0
 24 26  1  0
 26 27  1  0
 26 60  2  0
 27 59  1  0
 27 28  2  0
 28 29  1  0
 28 30  1  0
 30 35  1  0
 30 31  1  0
 31 32  2  0
 31 37  1  0
 32 33  1  0
 33 34  1  0
 33 35  2  0
 35 36  1  0
 37 38  1  0
 37 59  2  0
 38 39  1  0
 38 40  1  0
 40 57  1  0
 40 41  2  0
 41 42  1  0
 41 43  1  0
 43 44  1  0
 43 45  2  0
 45 46  1  0
 45 51  1  0
 46 47  1  0
 47 48  1  0
 47 49  1  0
 47 50  1  0
 51 52  1  0
 51 57  2  0
 52 53  1  0
 53 54  1  0
 53 55  1  0
 53 56  1  0
 57 58  1  0
 60 61  1  0
 62 63  1  0
 62 64  2  0
 64 65  1  0
M  END
$$$$
lig_CHEMBL3265009
     RDKit          3D

 51 54  0  0  1  0  0  0  0  0999 V2000
    6.2859   -0.8001   17.2354 H   0  0  0  0  0  0  0  0  0  0  0  0
    5.6508   -0.4922   16.4222 C   0  0  0  0  0  0  0  0  0  0  0  0
    5.9123    0.4158   15.4349 C   0  0  0  0  0  0  0  0  0  0  0  0
    6.7711    1.0298   15.2054 H   0  0  0  0  0  0  0  0  0  0  0  0
    4.7532    0.5229   14.6947 N   0  0  0  0  0  0  0  0  0  0  0  0
    3.8356   -0.4024   15.2413 C   0  0  0  0  0  0  0  0  0  0  0  0
    4.3877   -1.0474   16.2689 N   0  0  0  0  0  0  0  0  0  0  0  0
    2.5423   -0.4408   14.6503 C   0  0  0  0  0  0  0  0  0  0  0  0
    1.6252   -1.3611   15.1910 N   0  0  0  0  0  0  0  0  0  0  0  0
    2.0472   -1.9688   15.8830 H   0  0  0  0  0  0  0  0  0  0  0  0
    0.2453   -1.5576   15.0072 C   0  0  0  0  0  0  0  0  0  0  0  0
   -0.3577   -2.5925   15.7524 C   0  0  0  0  0  0  0  0  0  0  0  0
    0.2323   -3.1963   16.4287 H   0  0  0  0  0  0  0  0  0  0  0  0
   -1.7363   -2.8479   15.6385 C   0  0  0  0  0  0  0  0  0  0  0  0
   -2.1810   -3.6377   16.2269 H   0  0  0  0  0  0  0  0  0  0  0  0
   -2.5315   -2.0785   14.7679 C   0  0  0  0  0  0  0  0  0  0  0  0
   -3.8751   -2.3339   14.6804 O   0  0  0  0  0  0  0  0  0  0  0  0
   -4.2267   -3.1135   13.5486 C   0  0  0  0  0  0  0  0  0  0  0  0
   -5.3041   -3.2779   13.5429 H   0  0  0  0  0  0  0  0  0  0  0  0
   -3.9583   -2.6202   12.6127 H   0  0  0  0  0  0  0  0  0  0  0  0
   -3.7405   -4.0897   13.5800 H   0  0  0  0  0  0  0  0  0  0  0  0
   -1.9539   -1.0351   14.0131 C   0  0  0  0  0  0  0  0  0  0  0  0
   -2.7905   -0.3074   13.1918 O   0  0  0  0  0  0  0  0  0  0  0  0
   -2.2104    0.6821   12.3528 C   0  0  0  0  0  0  0  0  0  0  0  0
   -2.9796    1.0971   11.7022 H   0  0  0  0  0  0  0  0  0  0  0  0
   -1.7997    1.5009   12.9449 H   0  0  0  0  0  0  0  0  0  0  0  0
   -1.4287    0.2711   11.7113 H   0  0  0  0  0  0  0  0  0  0  0  0
   -0.5655   -0.7843   14.1432 C   0  0  0  0  0  0  0  0  0  0  0  0
   -0.1318    0.0185   13.5784 H   0  0  0  0  0  0  0  0  0  0  0  0
    2.2157    0.3579   13.6703 N   0  0  0  0  0  0  0  0  0  0  0  0
    3.1374    1.2623   13.1838 C   0  0  0  0  0  0  0  0  0  0  0  0
    2.6765    2.1660   12.1055 C   0  0  0  0  0  0  0  0  0  0  0  0
    3.5782    2.6313   11.1202 C   0  0  0  0  0  0  0  0  0  0  0  0
    4.6146    2.3316   11.1402 H   0  0  0  0  0  0  0  0  0  0  0  0
    3.1474    3.4664   10.0761 C   0  0  0  0  0  0  0  0  0  0  0  0
    3.8555    3.7945    9.3296 H   0  0  0  0  0  0  0  0  0  0  0  0
    1.8002    3.8595    9.9861 C   0  0  0  0  0  0  0  0  0  0  0  0
    1.3819    4.7450    8.8239 C   0  0  0  0  0  0  0  0  0  0  0  0
    2.2439    5.1168    8.2707 H   0  0  0  0  0  0  0  0  0  0  0  0
    0.7564    4.1741    8.1374 H   0  0  0  0  0  0  0  0  0  0  0  0
    0.8136    5.6064    9.1772 H   0  0  0  0  0  0  0  0  0  0  0  0
    0.8768    3.4193   10.9697 C   0  0  0  0  0  0  0  0  0  0  0  0
   -0.5808    3.7609   10.8675 C   0  0  0  0  0  0  0  0  0  0  0  0
   -1.1660    3.7248    9.7865 O   0  0  0  0  0  0  0  0  0  0  0  0
   -1.1701    4.1431   12.0032 N   0  0  0  0  0  0  0  0  0  0  0  0
   -0.6081    4.2426   12.8431 H   0  0  0  0  0  0  0  0  0  0  0  0
   -2.1399    4.4203   11.9957 H   0  0  0  0  0  0  0  0  0  0  0  0
    1.3290    2.5896   12.0238 C   0  0  0  0  0  0  0  0  0  0  0  0
    0.6264    2.2464   12.7693 H   0  0  0  0  0  0  0  0  0  0  0  0
    4.4217    1.3372   13.6640 C   0  0  0  0  0  0  0  0  0  0  0  0
    5.1711    2.0425   13.3222 H   0  0  0  0  0  0  0  0  0  0  0  0
  1  2  1  0
  2  7  1  0
  2  3  2  0
  3  4  1  0
  3  5  1  0
  5 50  1  0
  5  6  1  0
  6  7  2  0
  6  8  1  0
  8  9  1  0
  8 30  2  0
  9 10  1  0
  9 11  1  0
 11 28  1  0
 11 12  2  0
 12 13  1  0
 12 14  1  0
 14 15  1  0
 14 16  2  0
 16 17  1  0
 16 22  1  0
 17 18  1  0
 18 19  1  0
 18 20  1  0
 18 21  1  0
 22 23  1  0
 22 28  2  0
 23 24  1  0
 24 25  1  0
 24 26  1  0
 24 27  1  0
 28 29  1  0
 30 31  1  0
 31 32  1  0
 31 50  2  0
 32 48  1  0
 32 33  2  0
 33 34  1  0
 33 35  1  0
 35 36  1  0
 35 37  2  0
 37 38  1  0
 37 42  1  0
 38 39  1  0
 38 40  1  0
 38 41  1  0
 42 43  1  0
 42 48  2  0
 43 44  2  0
 43 45  1  0
 45 46  1  0
 45 47  1  0
 48 49  1  0
 50 51  1  0
M  END
$$$$
lig_CHEMBL3264994
     RDKit          3D

 64 68  0  0  1  0  0  0  0  0999 V2000
    6.2917   -0.8023   17.2355 H   0  0  0  0  0  0  0  0  0  0  0  0
    5.6576   -0.4850   16.4250 C   0  0  0  0  0  0  0  0  0  0  0  0
    5.9149    0.4156   15.4278 C   0  0  0  0  0  0  0  0  0  0  0  0
    6.7750    1.0228   15.1885 H   0  0  0  0  0  0  0  0  0  0  0  0
    4.7578    0.5106   14.6775 N   0  0  0  0  0  0  0  0  0  0  0  0
    3.8393   -0.4021   15.2414 C   0  0  0  0  0  0  0  0  0  0  0  0
    4.3856   -1.0278   16.2847 N   0  0  0  0  0  0  0  0  0  0  0  0
    2.5515   -0.4552   14.6416 C   0  0  0  0  0  0  0  0  0  0  0  0
    1.6410   -1.3564   15.2124 N   0  0  0  0  0  0  0  0  0  0  0  0
    2.0618   -1.9169   15.9425 H   0  0  0  0  0  0  0  0  0  0  0  0
    0.2698   -1.5835   15.0260 C   0  0  0  0  0  0  0  0  0  0  0  0
   -0.5783   -0.8161   14.1975 C   0  0  0  0  0  0  0  0  0  0  0  0
   -0.2148    0.0271   13.6333 H   0  0  0  0  0  0  0  0  0  0  0  0
   -1.9478   -1.1317   14.0967 C   0  0  0  0  0  0  0  0  0  0  0  0
   -2.5569   -0.5108   13.4604 H   0  0  0  0  0  0  0  0  0  0  0  0
   -2.5069   -2.2203   14.8092 C   0  0  0  0  0  0  0  0  0  0  0  0
   -4.0044   -2.5557   14.6959 C   0  0  0  0  0  0  0  0  0  0  0  0
   -4.7876   -1.6022   15.6211 C   0  0  0  0  0  0  0  0  0  0  0  0
   -5.8647   -1.7475   15.5317 H   0  0  0  0  0  0  0  0  0  0  0  0
   -4.5657   -0.5540   15.4272 H   0  0  0  0  0  0  0  0  0  0  0  0
   -4.5242   -1.7762   16.6654 H   0  0  0  0  0  0  0  0  0  0  0  0
   -4.3226   -4.0033   15.1382 C   0  0  0  0  0  0  0  0  0  0  0  0
   -3.7337   -4.7303   14.5776 H   0  0  0  0  0  0  0  0  0  0  0  0
   -4.1332   -4.1665   16.2003 H   0  0  0  0  0  0  0  0  0  0  0  0
   -5.3732   -4.2445   14.9759 H   0  0  0  0  0  0  0  0  0  0  0  0
   -4.4876   -2.4364   13.2310 C   0  0  0  0  0  0  0  0  0  0  0  0
   -3.9293   -3.1138   12.5826 H   0  0  0  0  0  0  0  0  0  0  0  0
   -5.5418   -2.6986   13.1369 H   0  0  0  0  0  0  0  0  0  0  0  0
   -4.3690   -1.4404   12.8125 H   0  0  0  0  0  0  0  0  0  0  0  0
   -1.6527   -2.9608   15.6570 C   0  0  0  0  0  0  0  0  0  0  0  0
   -2.0131   -3.7830   16.2534 H   0  0  0  0  0  0  0  0  0  0  0  0
   -0.2861   -2.6505   15.7570 C   0  0  0  0  0  0  0  0  0  0  0  0
    0.3368   -3.2430   16.4132 H   0  0  0  0  0  0  0  0  0  0  0  0
    2.2227    0.3088   13.6387 N   0  0  0  0  0  0  0  0  0  0  0  0
    3.1423    1.2087   13.1411 C   0  0  0  0  0  0  0  0  0  0  0  0
    2.6642    2.1090   12.0664 C   0  0  0  0  0  0  0  0  0  0  0  0
    3.5455    2.5928   11.0695 C   0  0  0  0  0  0  0  0  0  0  0  0
    4.5774    2.2758   11.0604 H   0  0  0  0  0  0  0  0  0  0  0  0
    3.1014    3.4848   10.0734 C   0  0  0  0  0  0  0  0  0  0  0  0
    3.7921    3.8460    9.3255 H   0  0  0  0  0  0  0  0  0  0  0  0
    1.7617    3.9149   10.0579 C   0  0  0  0  0  0  0  0  0  0  0  0
    1.4296    4.6132    9.3026 H   0  0  0  0  0  0  0  0  0  0  0  0
    0.8619    3.4336   11.0278 C   0  0  0  0  0  0  0  0  0  0  0  0
   -0.4614    3.9352   11.0543 N   0  0  0  0  0  0  0  0  0  0  0  0
   -0.5647    4.9373   11.0077 H   0  0  0  0  0  0  0  0  0  0  0  0
   -1.5808    3.2213   11.2586 C   0  0  0  0  0  0  0  0  0  0  0  0
   -1.6682    2.0013   11.1111 O   0  0  0  0  0  0  0  0  0  0  0  0
   -2.7760    4.0451   11.6288 C   0  0  0  0  0  0  0  0  0  0  0  0
   -2.6660    5.0073   12.6535 C   0  0  0  0  0  0  0  0  0  0  0  0
   -1.7226    5.1662   13.1590 H   0  0  0  0  0  0  0  0  0  0  0  0
   -3.7974    5.7203   13.0864 C   0  0  0  0  0  0  0  0  0  0  0  0
   -3.7040    6.3991   13.9183 H   0  0  0  0  0  0  0  0  0  0  0  0
   -5.0519    5.5306   12.4711 C   0  0  0  0  0  0  0  0  0  0  0  0
   -6.2534    6.3087   12.9399 C   0  0  0  0  0  0  0  0  0  0  0  0
   -7.3688    6.0571   12.4341 O   0  0  0  0  0  0  0  0  0  0  0  0
   -6.1094    7.1827   13.8271 O   0  0  0  0  0  0  0  0  0  0  0  0
   -5.1568    4.5797   11.4261 C   0  0  0  0  0  0  0  0  0  0  0  0
   -6.1086    4.4101   10.9431 H   0  0  0  0  0  0  0  0  0  0  0  0
   -4.0318    3.8279   11.0215 C   0  0  0  0  0  0  0  0  0  0  0  0
   -4.1347    3.0890   10.2408 H   0  0  0  0  0  0  0  0  0  0  0  0
    1.3187    2.5445   12.0276 C   0  0  0  0  0  0  0  0  0  0  0  0
    0.6359    2.2184   12.7973 H   0  0  0  0  0  0  0  0  0  0  0  0
    4.4255    1.3018   13.6279 C   0  0  0  0  0  0  0  0  0  0  0  0
    5.1696    2.0085   13.2779 H   0  0  0  0  0  0  0  0  0  0  0  0
  1  2  1  0
  2  7  1  0
  2  3  2  0
  3  4  1  0
  3  5  1  0
  5 63  1  0
  5  6  1  0
  6  7  2  0
  6  8  1  0
  8  9  1  0
  8 34  2  0
  9 10  1  0
  9 11  1  0
 11 32  1  0
 11 12  2  0
 12 13  1  0
 12 14  1  0
 14 15  1  0
 14 16  2  0
 16 17  1  0
 16 30  1  0
 17 18  1  0
 17 22  1  0
 17 26  1  0
 18 19  1  0
 18 20  1  0
 18 21  1  0
 22 23  1  0
 22 24  1  0
 22 25  1  0
 26 27  1  0
 26 28  1  0
 26 29  1  0
 30 31  1  0
 30 32  2  0
 32 33  1  0
 34 35  1  0
 35 36  1  0
 35 63  2  0
 36 61  1  0
 36 37  2  0
 37 38  1  0
 37 39  1  0
 39 40  1  0
 39 41  2  0
 41 42  1  0
 41 43  1  0
 43 44  1  0
 43 61  2  0
 44 45  1  0
 44 46  1  0
 46 47  2  0
 46 48  1  0
 48 59  1  0
 48 49  2  0
 49 50  1  0
 49 51  1  0
 51 52  1  0
 51 53  2  0
 53 54  1  0
 53 57  1  0
 54 55  2  0
 54 56  1  0
 57 58  1  0
 57 59  2  0
 59 60  1  0
 61 62  1  0
 63 64  1  0
M  CHG  1  56  -1
M  END
$$$$
lig_CHEMBL3265010
     RDKit          3D

 52 55  0  0  1  0  0  0  0  0999 V2000
    6.2351   -0.8724   17.2342 H   0  0  0  0  0  0  0  0  0  0  0  0
    5.6135   -0.5252   16.4265 C   0  0  0  0  0  0  0  0  0  0  0  0
    5.8844    0.3998   15.4566 C   0  0  0  0  0  0  0  0  0  0  0  0
    6.7577    0.9978   15.2399 H   0  0  0  0  0  0  0  0  0  0  0  0
    4.7351    0.5176   14.7056 N   0  0  0  0  0  0  0  0  0  0  0  0
    3.8090   -0.4021   15.2452 C   0  0  0  0  0  0  0  0  0  0  0  0
    4.3420   -1.0502   16.2775 N   0  0  0  0  0  0  0  0  0  0  0  0
    2.5246   -0.4310   14.6377 C   0  0  0  0  0  0  0  0  0  0  0  0
    1.5903   -1.3316   15.1873 N   0  0  0  0  0  0  0  0  0  0  0  0
    1.9998   -1.9151   15.9016 H   0  0  0  0  0  0  0  0  0  0  0  0
    0.2142   -1.5331   14.9819 C   0  0  0  0  0  0  0  0  0  0  0  0
   -0.3793   -2.5709   15.7241 C   0  0  0  0  0  0  0  0  0  0  0  0
    0.2175   -3.1704   16.3994 H   0  0  0  0  0  0  0  0  0  0  0  0
   -1.7547   -2.8326   15.6119 C   0  0  0  0  0  0  0  0  0  0  0  0
   -2.1956   -3.6272   16.2013 H   0  0  0  0  0  0  0  0  0  0  0  0
   -2.5531   -2.0653   14.7419 C   0  0  0  0  0  0  0  0  0  0  0  0
   -3.8959   -2.3311   14.6519 O   0  0  0  0  0  0  0  0  0  0  0  0
   -4.2337   -3.1205   13.5240 C   0  0  0  0  0  0  0  0  0  0  0  0
   -5.3086   -3.2981   13.5186 H   0  0  0  0  0  0  0  0  0  0  0  0
   -3.9696   -2.6277   12.5884 H   0  0  0  0  0  0  0  0  0  0  0  0
   -3.7345   -4.0888   13.5599 H   0  0  0  0  0  0  0  0  0  0  0  0
   -1.9834   -1.0165   13.9865 C   0  0  0  0  0  0  0  0  0  0  0  0
   -2.8262   -0.2906   13.1710 O   0  0  0  0  0  0  0  0  0  0  0  0
   -2.2498    0.6922   12.3234 C   0  0  0  0  0  0  0  0  0  0  0  0
   -3.0323    1.1453   11.7126 H   0  0  0  0  0  0  0  0  0  0  0  0
   -1.7863    1.4899   12.9027 H   0  0  0  0  0  0  0  0  0  0  0  0
   -1.5131    0.2635   11.6428 H   0  0  0  0  0  0  0  0  0  0  0  0
   -0.5966   -0.7616   14.1143 C   0  0  0  0  0  0  0  0  0  0  0  0
   -0.1608    0.0447   13.5538 H   0  0  0  0  0  0  0  0  0  0  0  0
    2.2055    0.3637   13.6510 N   0  0  0  0  0  0  0  0  0  0  0  0
    3.1380    1.2651   13.1700 C   0  0  0  0  0  0  0  0  0  0  0  0
    2.6765    2.1869   12.1030 C   0  0  0  0  0  0  0  0  0  0  0  0
    3.5785    2.6907   11.1406 C   0  0  0  0  0  0  0  0  0  0  0  0
    4.6193    2.3983   11.1614 H   0  0  0  0  0  0  0  0  0  0  0  0
    3.1487    3.5491   10.1167 C   0  0  0  0  0  0  0  0  0  0  0  0
    3.8675    3.8906    9.3915 H   0  0  0  0  0  0  0  0  0  0  0  0
    1.7950    3.9356   10.0243 C   0  0  0  0  0  0  0  0  0  0  0  0
    1.3264    4.7758    9.0392 O   0  0  0  0  0  0  0  0  0  0  0  0
    2.1782    5.8301    8.6281 C   0  0  0  0  0  0  0  0  0  0  0  0
    1.6318    6.4945    7.9582 H   0  0  0  0  0  0  0  0  0  0  0  0
    2.5115    6.4210    9.4854 H   0  0  0  0  0  0  0  0  0  0  0  0
    3.0444    5.4554    8.0871 H   0  0  0  0  0  0  0  0  0  0  0  0
    0.8767    3.4344   10.9748 C   0  0  0  0  0  0  0  0  0  0  0  0
   -0.5810    3.7739   10.8622 C   0  0  0  0  0  0  0  0  0  0  0  0
   -1.1666    3.7224    9.7835 O   0  0  0  0  0  0  0  0  0  0  0  0
   -1.1662    4.1726   11.9943 N   0  0  0  0  0  0  0  0  0  0  0  0
   -0.5942    4.3028   12.8209 H   0  0  0  0  0  0  0  0  0  0  0  0
   -2.1327    4.4494   11.9791 H   0  0  0  0  0  0  0  0  0  0  0  0
    1.3234    2.5844   12.0093 C   0  0  0  0  0  0  0  0  0  0  0  0
    0.6166    2.2155   12.7416 H   0  0  0  0  0  0  0  0  0  0  0  0
    4.4186    1.3355   13.6687 C   0  0  0  0  0  0  0  0  0  0  0  0
    5.1757    2.0362   13.3391 H   0  0  0  0  0  0  0  0  0  0  0  0
  1  2  1  0
  2  7  1  0
  2  3  2  0
  3  4  1  0
  3  5  1  0
  5 51  1  0
  5  6  1  0
  6  7  2  0
  6  8  1  0
  8  9  1  0
  8 30  2  0
  9 10  1  0
  9 11  1  0
 11 28  1  0
 11 12  2  0
 12 13  1  0
 12 14  1  0
 14 15  1  0
 14 16  2  0
 16 17  1  0
 16 22  1  0
 17 18  1  0
 18 19  1  0
 18 20  1  0
 18 21  1  0
 22 23  1  0
 22 28  2  0
 23 24  1  0
 24 25  1  0
 24 26  1  0
 24 27  1  0
 28 29  1  0
 30 31  1  0
 31 32  1  0
 31 51  2  0
 32 49  1  0
 32 33  2  0
 33 34  1  0
 33 35  1  0
 35 36  1  0
 35 37  2  0
 37 38  1  0
 37 43  1  0
 38 39  1  0
 39 40  1  0
 39 41  1  0
 39 42  1  0
 43 44  1  0
 43 49  2  0
 44 45  2  0
 44 46  1  0
 46 47  1  0
 46 48  1  0
 49 50  1  0
 51 52  1  0
M  END
$$$$
lig_CHEMBL3265005
     RDKit          3D

 48 51  0  0  1  0  0  0  0  0999 V2000
    6.2751   -0.8021   17.2658 H   0  0  0  0  0  0  0  0  0  0  0  0
    5.6491   -0.4940   16.4472 C   0  0  0  0  0  0  0  0  0  0  0  0
    5.9065    0.4213   15.4682 C   0  0  0  0  0  0  0  0  0  0  0  0
    6.7595    1.0419   15.2493 H   0  0  0  0  0  0  0  0  0  0  0  0
    4.7525    0.5205   14.7206 N   0  0  0  0  0  0  0  0  0  0  0  0
    3.8328   -0.4043   15.2669 C   0  0  0  0  0  0  0  0  0  0  0  0
    4.3814   -1.0442   16.3000 N   0  0  0  0  0  0  0  0  0  0  0  0
    2.5405   -0.4491   14.6655 C   0  0  0  0  0  0  0  0  0  0  0  0
    1.6120   -1.3564   15.2116 N   0  0  0  0  0  0  0  0  0  0  0  0
    2.0165   -1.9115   15.9561 H   0  0  0  0  0  0  0  0  0  0  0  0
    0.2348   -1.5699   15.0090 C   0  0  0  0  0  0  0  0  0  0  0  0
   -0.3623   -2.6025   15.7627 C   0  0  0  0  0  0  0  0  0  0  0  0
    0.2295   -3.1926   16.4487 H   0  0  0  0  0  0  0  0  0  0  0  0
   -1.7395   -2.8649   15.6543 C   0  0  0  0  0  0  0  0  0  0  0  0
   -2.1821   -3.6483   16.2520 H   0  0  0  0  0  0  0  0  0  0  0  0
   -2.5406   -2.1038   14.7809 C   0  0  0  0  0  0  0  0  0  0  0  0
   -3.8823   -2.3696   14.6982 O   0  0  0  0  0  0  0  0  0  0  0  0
   -4.2322   -3.1281   13.5523 C   0  0  0  0  0  0  0  0  0  0  0  0
   -5.3083   -3.3037   13.5359 H   0  0  0  0  0  0  0  0  0  0  0  0
   -3.9617   -2.6137   12.6297 H   0  0  0  0  0  0  0  0  0  0  0  0
   -3.7355   -4.0985   13.5658 H   0  0  0  0  0  0  0  0  0  0  0  0
   -1.9717   -1.0564   14.0239 C   0  0  0  0  0  0  0  0  0  0  0  0
   -2.8191   -0.3216   13.2193 O   0  0  0  0  0  0  0  0  0  0  0  0
   -2.2386    0.6604   12.3730 C   0  0  0  0  0  0  0  0  0  0  0  0
   -3.0023    1.0974   11.7319 H   0  0  0  0  0  0  0  0  0  0  0  0
   -1.8001    1.4667   12.9608 H   0  0  0  0  0  0  0  0  0  0  0  0
   -1.4776    0.2263   11.7237 H   0  0  0  0  0  0  0  0  0  0  0  0
   -0.5807   -0.8022   14.1425 C   0  0  0  0  0  0  0  0  0  0  0  0
   -0.1447    0.0018   13.5777 H   0  0  0  0  0  0  0  0  0  0  0  0
    2.2222    0.3384   13.6777 N   0  0  0  0  0  0  0  0  0  0  0  0
    3.1457    1.2461   13.2020 C   0  0  0  0  0  0  0  0  0  0  0  0
    2.6823    2.1399   12.1242 C   0  0  0  0  0  0  0  0  0  0  0  0
    3.5830    2.6072   11.1379 C   0  0  0  0  0  0  0  0  0  0  0  0
    4.6222    2.3120   11.1678 H   0  0  0  0  0  0  0  0  0  0  0  0
    3.1397    3.4322   10.0882 C   0  0  0  0  0  0  0  0  0  0  0  0
    3.8394    3.7685    9.3374 H   0  0  0  0  0  0  0  0  0  0  0  0
    1.7837    3.8001   10.0092 C   0  0  0  0  0  0  0  0  0  0  0  0
    1.4463    4.4190    9.1896 H   0  0  0  0  0  0  0  0  0  0  0  0
    0.8734    3.3730   10.9984 C   0  0  0  0  0  0  0  0  0  0  0  0
   -0.5747    3.7372   10.8865 C   0  0  0  0  0  0  0  0  0  0  0  0
   -1.1606    3.7080    9.8070 O   0  0  0  0  0  0  0  0  0  0  0  0
   -1.1653    4.1209   12.0176 N   0  0  0  0  0  0  0  0  0  0  0  0
   -0.6042    4.2230   12.8577 H   0  0  0  0  0  0  0  0  0  0  0  0
   -2.1341    4.3965   11.9973 H   0  0  0  0  0  0  0  0  0  0  0  0
    1.3299    2.5485   12.0505 C   0  0  0  0  0  0  0  0  0  0  0  0
    0.6295    2.2010   12.7976 H   0  0  0  0  0  0  0  0  0  0  0  0
    4.4276    1.3304   13.6874 C   0  0  0  0  0  0  0  0  0  0  0  0
    5.1790    2.0394   13.3580 H   0  0  0  0  0  0  0  0  0  0  0  0
  1  2  1  0
  2  7  1  0
  2  3  2  0
  3  4  1  0
  3  5  1  0
  5 47  1  0
  5  6  1  0
  6  7  2  0
  6  8  1  0
  8  9  1  0
  8 30  2  0
  9 10  1  0
  9 11  1  0
 11 28  1  0
 11 12  2  0
 12 13  1  0
 12 14  1  0
 14 15  1  0
 14 16  2  0
 16 17  1  0
 16 22  1  0
 17 18  1  0
 18 19  1  0
 18 20  1  0
 18 21  1  0
 22 23  1  0
 22 28  2  0
 23 24  1  0
 24 25  1  0
 24 26  1  0
 24 27  1  0
 28 29  1  0
 30 31  1  0
 31 32  1  0
 31 47  2  0
 32 45  1  0
 32 33  2  0
 33 34  1  0
 33 35  1  0
 35 36  1  0
 35 37  2  0
 37 38  1  0
 37 39  1  0
 39 40  1  0
 39 45  2  0
 40 41  2  0
 40 42  1  0
 42 43  1  0
 42 44  1  0
 45 46  1  0
 47 48  1  0
M  END
$$$$
lig_CHEMBL3264999
     RDKit          3D

 62 66  0  0  1  0  0  0  0  0999 V2000
    6.2361   -0.8312   17.2645 H   0  0  0  0  0  0  0  0  0  0  0  0
    5.6304   -0.5138   16.4365 C   0  0  0  0  0  0  0  0  0  0  0  0
    5.8993    0.4095   15.4654 C   0  0  0  0  0  0  0  0  0  0  0  0
    6.7558    1.0347   15.2611 H   0  0  0  0  0  0  0  0  0  0  0  0
    4.7497    0.5203   14.7133 N   0  0  0  0  0  0  0  0  0  0  0  0
    3.8250   -0.4047   15.2510 C   0  0  0  0  0  0  0  0  0  0  0  0
    4.3628   -1.0529   16.2865 N   0  0  0  0  0  0  0  0  0  0  0  0
    2.5337   -0.4297   14.6463 C   0  0  0  0  0  0  0  0  0  0  0  0
    1.6051   -1.3330   15.1905 N   0  0  0  0  0  0  0  0  0  0  0  0
    2.0178   -1.9122   15.9128 H   0  0  0  0  0  0  0  0  0  0  0  0
    0.2282   -1.5375   14.9930 C   0  0  0  0  0  0  0  0  0  0  0  0
   -0.3659   -2.5698   15.7471 C   0  0  0  0  0  0  0  0  0  0  0  0
    0.2314   -3.1586   16.4307 H   0  0  0  0  0  0  0  0  0  0  0  0
   -1.7415   -2.8422   15.6366 C   0  0  0  0  0  0  0  0  0  0  0  0
   -2.1798   -3.6353   16.2273 H   0  0  0  0  0  0  0  0  0  0  0  0
   -2.5462   -2.0833   14.7660 C   0  0  0  0  0  0  0  0  0  0  0  0
   -3.8856   -2.3590   14.6783 O   0  0  0  0  0  0  0  0  0  0  0  0
   -4.2216   -3.1265   13.5338 C   0  0  0  0  0  0  0  0  0  0  0  0
   -5.2941   -3.3194   13.5270 H   0  0  0  0  0  0  0  0  0  0  0  0
   -3.9669   -2.6095   12.6076 H   0  0  0  0  0  0  0  0  0  0  0  0
   -3.7088   -4.0890   13.5448 H   0  0  0  0  0  0  0  0  0  0  0  0
   -1.9805   -1.0350   14.0075 C   0  0  0  0  0  0  0  0  0  0  0  0
   -2.8305   -0.3058   13.1997 O   0  0  0  0  0  0  0  0  0  0  0  0
   -2.2582    0.6749   12.3464 C   0  0  0  0  0  0  0  0  0  0  0  0
   -3.0342    1.1118   11.7188 H   0  0  0  0  0  0  0  0  0  0  0  0
   -1.8093    1.4814   12.9275 H   0  0  0  0  0  0  0  0  0  0  0  0
   -1.5066    0.2427   11.6833 H   0  0  0  0  0  0  0  0  0  0  0  0
   -0.5903   -0.7760   14.1248 C   0  0  0  0  0  0  0  0  0  0  0  0
   -0.1626    0.0281   13.5565 H   0  0  0  0  0  0  0  0  0  0  0  0
    2.2179    0.3652   13.6624 N   0  0  0  0  0  0  0  0  0  0  0  0
    3.1504    1.2654   13.1919 C   0  0  0  0  0  0  0  0  0  0  0  0
    2.7005    2.1597   12.1074 C   0  0  0  0  0  0  0  0  0  0  0  0
    3.6134    2.6177   11.1280 C   0  0  0  0  0  0  0  0  0  0  0  0
    4.6502    2.3172   11.1668 H   0  0  0  0  0  0  0  0  0  0  0  0
    3.1890    3.4343   10.0642 C   0  0  0  0  0  0  0  0  0  0  0  0
    3.8979    3.7583    9.3156 H   0  0  0  0  0  0  0  0  0  0  0  0
    1.8369    3.8037    9.9627 C   0  0  0  0  0  0  0  0  0  0  0  0
    1.5119    4.4104    9.1299 H   0  0  0  0  0  0  0  0  0  0  0  0
    0.9115    3.3827   10.9399 C   0  0  0  0  0  0  0  0  0  0  0  0
   -0.5372    3.7216   10.7800 C   0  0  0  0  0  0  0  0  0  0  0  0
   -1.0598    3.6578    9.6675 O   0  0  0  0  0  0  0  0  0  0  0  0
   -1.1573    4.1283   11.9035 N   0  0  0  0  0  0  0  0  0  0  0  0
   -0.5555    4.2758   12.7072 H   0  0  0  0  0  0  0  0  0  0  0  0
   -2.5148    4.5250   12.0521 C   0  0  0  0  0  0  0  0  0  0  0  0
   -3.5538    4.0750   11.2019 C   0  0  0  0  0  0  0  0  0  0  0  0
   -3.3622    3.3845   10.3945 H   0  0  0  0  0  0  0  0  0  0  0  0
   -4.8731    4.5289   11.3875 C   0  0  0  0  0  0  0  0  0  0  0  0
   -5.6455    4.1857   10.7138 H   0  0  0  0  0  0  0  0  0  0  0  0
   -5.1860    5.4288   12.4281 C   0  0  0  0  0  0  0  0  0  0  0  0
   -6.6000    5.9128   12.5974 C   0  0  0  0  0  0  0  0  0  0  0  0
   -7.5509    5.3303   12.0836 O   0  0  0  0  0  0  0  0  0  0  0  0
   -6.7484    7.0534   13.2683 N   0  0  0  0  0  0  0  0  0  0  0  0
   -5.9161    7.5651   13.5131 H   0  0  0  0  0  0  0  0  0  0  0  0
   -7.6784    7.4130   13.4237 H   0  0  0  0  0  0  0  0  0  0  0  0
   -4.1619    5.8132   13.3272 C   0  0  0  0  0  0  0  0  0  0  0  0
   -4.3701    6.4507   14.1741 H   0  0  0  0  0  0  0  0  0  0  0  0
   -2.8367    5.3789   13.1255 C   0  0  0  0  0  0  0  0  0  0  0  0
   -2.0620    5.7017   13.8084 H   0  0  0  0  0  0  0  0  0  0  0  0
    1.3507    2.5715   12.0095 C   0  0  0  0  0  0  0  0  0  0  0  0
    0.6389    2.2295   12.7465 H   0  0  0  0  0  0  0  0  0  0  0  0
    4.4298    1.3409   13.6860 C   0  0  0  0  0  0  0  0  0  0  0  0
    5.1830    2.0488   13.3577 H   0  0  0  0  0  0  0  0  0  0  0  0
  1  2  1  0
  2  7  1  0
  2  3  2  0
  3  4  1  0
  3  5  1  0
  5 61  1  0
  5  6  1  0
  6  7  2  0
  6  8  1  0
  8  9  1  0
  8 30  2  0
  9 10  1  0
  9 11  1  0
 11 28  1  0
 11 12  2  0
 12 13  1  0
 12 14  1  0
 14 15  1  0
 14 16  2  0
 16 17  1  0
 16 22  1  0
 17 18  1  0
 18 19  1  0
 18 20  1  0
 18 21  1  0
 22 23  1  0
 22 28  2  0
 23 24  1  0
 24 25  1  0
 24 26  1  0
 24 27  1  0
 28 29  1  0
 30 31  1  0
 31 32  1  0
 31 61  2  0
 32 59  1  0
 32 33  2  0
 33 34  1  0
 33 35  1  0
 35 36  1  0
 35 37  2  0
 37 38  1  0
 37 39  1  0
 39 40  1  0
 39 59  2  0
 40 41  2  0
 40 42  1  0
 42 43  1  0
 42 44  1  0
 44 57  1  0
 44 45  2  0
 45 46  1  0
 45 47  1  0
 47 48  1  0
 47 49  2  0
 49 50  1  0
 49 55  1  0
 50 51  2  0
 50 52  1  0
 52 53  1  0
 52 54  1  0
 55 56  1  0
 55 57  2  0
 57 58  1  0
 59 60  1  0
 61 62  1  0
M  END
$$$$
lig_CHEMBL3265034
     RDKit          3D

 53 58  0  0  1  0  0  0  0  0999 V2000
    1.2803    5.2155    8.2276 H   0  0  0  0  0  0  0  0  0  0  0  0
    0.9936    4.7010    9.1304 C   0  0  0  0  0  0  0  0  0  0  0  0
   -0.2353    4.8135    9.5751 N   0  0  0  0  0  0  0  0  0  0  0  0
   -0.2742    4.0806   10.7168 N   0  0  0  0  0  0  0  0  0  0  0  0
   -1.1220    4.0336   11.2638 H   0  0  0  0  0  0  0  0  0  0  0  0
    0.9256    3.4667   11.0291 C   0  0  0  0  0  0  0  0  0  0  0  0
    1.3458    2.6233   12.0708 C   0  0  0  0  0  0  0  0  0  0  0  0
    0.6533    2.3443   12.8499 H   0  0  0  0  0  0  0  0  0  0  0  0
    2.6755    2.1442   12.0976 C   0  0  0  0  0  0  0  0  0  0  0  0
    3.1381    1.2445   13.1765 C   0  0  0  0  0  0  0  0  0  0  0  0
    4.4210    1.3325   13.6603 C   0  0  0  0  0  0  0  0  0  0  0  0
    5.1645    2.0396   13.3150 H   0  0  0  0  0  0  0  0  0  0  0  0
    4.7564    0.5224   14.6953 N   0  0  0  0  0  0  0  0  0  0  0  0
    3.8419   -0.4021   15.2412 C   0  0  0  0  0  0  0  0  0  0  0  0
    4.3948   -1.0482   16.2691 N   0  0  0  0  0  0  0  0  0  0  0  0
    5.6585   -0.4941   16.4245 C   0  0  0  0  0  0  0  0  0  0  0  0
    6.2974   -0.8021   17.2363 H   0  0  0  0  0  0  0  0  0  0  0  0
    5.9126    0.4240   15.4443 C   0  0  0  0  0  0  0  0  0  0  0  0
    6.7643    1.0485   15.2228 H   0  0  0  0  0  0  0  0  0  0  0  0
    2.5461   -0.4403   14.6491 C   0  0  0  0  0  0  0  0  0  0  0  0
    1.6331   -1.3398   15.2200 N   0  0  0  0  0  0  0  0  0  0  0  0
    2.0603   -1.9028   15.9452 H   0  0  0  0  0  0  0  0  0  0  0  0
    0.2645   -1.5771   15.0244 C   0  0  0  0  0  0  0  0  0  0  0  0
   -0.5797   -0.8270   14.1730 C   0  0  0  0  0  0  0  0  0  0  0  0
   -0.2104    0.0093   13.6019 H   0  0  0  0  0  0  0  0  0  0  0  0
   -1.9449   -1.1536   14.0511 C   0  0  0  0  0  0  0  0  0  0  0  0
   -2.5553   -0.5615   13.3868 H   0  0  0  0  0  0  0  0  0  0  0  0
   -2.4907   -2.2371   14.7771 C   0  0  0  0  0  0  0  0  0  0  0  0
   -3.9545   -2.6453   14.6623 C   0  0  0  0  0  0  0  0  0  0  0  0
   -4.0232   -3.6890   14.9736 H   0  0  0  0  0  0  0  0  0  0  0  0
   -4.8357   -1.8343   15.6236 C   0  0  0  0  0  0  0  0  0  0  0  0
   -4.5360   -2.0161   16.6559 H   0  0  0  0  0  0  0  0  0  0  0  0
   -4.6883   -0.7690   15.4527 H   0  0  0  0  0  0  0  0  0  0  0  0
   -6.3205   -2.1910   15.4379 C   0  0  0  0  0  0  0  0  0  0  0  0
   -6.5187   -3.2205   15.7468 H   0  0  0  0  0  0  0  0  0  0  0  0
   -6.9409   -1.5486   16.0666 H   0  0  0  0  0  0  0  0  0  0  0  0
   -6.6922   -2.0031   14.0735 O   0  0  0  0  0  0  0  0  0  0  0  0
   -6.0095   -2.8986   13.1995 C   0  0  0  0  0  0  0  0  0  0  0  0
   -6.1997   -3.9347   13.4907 H   0  0  0  0  0  0  0  0  0  0  0  0
   -6.4041   -2.7756   12.1892 H   0  0  0  0  0  0  0  0  0  0  0  0
   -4.5044   -2.5840   13.2224 C   0  0  0  0  0  0  0  0  0  0  0  0
   -4.3588   -1.6026   12.7801 H   0  0  0  0  0  0  0  0  0  0  0  0
   -3.9640   -3.2838   12.5853 H   0  0  0  0  0  0  0  0  0  0  0  0
   -1.6554   -2.9610   15.6489 C   0  0  0  0  0  0  0  0  0  0  0  0
   -2.0496   -3.7783   16.2339 H   0  0  0  0  0  0  0  0  0  0  0  0
   -0.2931   -2.6374   15.7648 C   0  0  0  0  0  0  0  0  0  0  0  0
    0.3246   -3.2146   16.4381 H   0  0  0  0  0  0  0  0  0  0  0  0
    2.2138    0.3419   13.6614 N   0  0  0  0  0  0  0  0  0  0  0  0
    3.5567    2.5551   11.0658 C   0  0  0  0  0  0  0  0  0  0  0  0
    4.5760    2.1974   11.0583 H   0  0  0  0  0  0  0  0  0  0  0  0
    3.1268    3.3998   10.0196 C   0  0  0  0  0  0  0  0  0  0  0  0
    3.8158    3.6781    9.2370 H   0  0  0  0  0  0  0  0  0  0  0  0
    1.7943    3.8703    9.9799 C   0  0  0  0  0  0  0  0  0  0  0  0
  1  2  1  0
  2 53  1  0
  2  3  2  0
  3  4  1  0
  4  5  1  0
  4  6  1  0
  6 53  2  0
  6  7  1  0
  7  8  1  0
  7  9  2  0
  9 10  1  0
  9 49  1  0
 10 48  1  0
 10 11  2  0
 11 12  1  0
 11 13  1  0
 13 18  1  0
 13 14  1  0
 14 15  2  0
 14 20  1  0
 15 16  1  0
 16 17  1  0
 16 18  2  0
 18 19  1  0
 20 21  1  0
 20 48  2  0
 21 22  1  0
 21 23  1  0
 23 46  1  0
 23 24  2  0
 24 25  1  0
 24 26  1  0
 26 27  1  0
 26 28  2  0
 28 29  1  0
 28 44  1  0
 29 41  1  0
 29 30  1  0
 29 31  1  0
 31 32  1  0
 31 33  1  0
 31 34  1  0
 34 35  1  0
 34 36  1  0
 34 37  1  0
 37 38  1  0
 38 39  1  0
 38 40  1  0
 38 41  1  0
 41 42  1  0
 41 43  1  0
 44 45  1  0
 44 46  2  0
 46 47  1  0
 49 50  1  0
 49 51  2  0
 51 52  1  0
 51 53  1  0
M  END
$$$$
lig_CHEMBL3265011
     RDKit          3D

 51 54  0  0  1  0  0  0  0  0999 V2000
    6.2343   -0.8983   17.2940 H   0  0  0  0  0  0  0  0  0  0  0  0
    5.6044   -0.5660   16.4920 C   0  0  0  0  0  0  0  0  0  0  0  0
    5.8558    0.3978   15.5613 C   0  0  0  0  0  0  0  0  0  0  0  0
    6.7167    1.0234   15.3684 H   0  0  0  0  0  0  0  0  0  0  0  0
    4.7071    0.5172   14.8011 N   0  0  0  0  0  0  0  0  0  0  0  0
    3.7922   -0.4373   15.2896 C   0  0  0  0  0  0  0  0  0  0  0  0
    4.3348   -1.1208   16.3016 N   0  0  0  0  0  0  0  0  0  0  0  0
    2.5191   -0.4699   14.6603 C   0  0  0  0  0  0  0  0  0  0  0  0
    1.5902   -1.3835   15.1930 N   0  0  0  0  0  0  0  0  0  0  0  0
    1.9855   -1.9430   15.9381 H   0  0  0  0  0  0  0  0  0  0  0  0
    0.2120   -1.5743   14.9972 C   0  0  0  0  0  0  0  0  0  0  0  0
   -0.3914   -2.6021   15.7558 C   0  0  0  0  0  0  0  0  0  0  0  0
    0.1987   -3.1952   16.4373 H   0  0  0  0  0  0  0  0  0  0  0  0
   -1.7698   -2.8569   15.6442 C   0  0  0  0  0  0  0  0  0  0  0  0
   -2.2129   -3.6419   16.2384 H   0  0  0  0  0  0  0  0  0  0  0  0
   -2.5632   -2.0914   14.7714 C   0  0  0  0  0  0  0  0  0  0  0  0
   -3.9054   -2.3525   14.6831 O   0  0  0  0  0  0  0  0  0  0  0  0
   -4.2479   -3.1250   13.5440 C   0  0  0  0  0  0  0  0  0  0  0  0
   -5.3228   -3.3040   13.5361 H   0  0  0  0  0  0  0  0  0  0  0  0
   -3.9844   -2.6174   12.6152 H   0  0  0  0  0  0  0  0  0  0  0  0
   -3.7467   -4.0942   13.5646 H   0  0  0  0  0  0  0  0  0  0  0  0
   -1.9879   -1.0482   14.0116 C   0  0  0  0  0  0  0  0  0  0  0  0
   -2.8274   -0.3152   13.2004 O   0  0  0  0  0  0  0  0  0  0  0  0
   -2.2487    0.6707   12.3592 C   0  0  0  0  0  0  0  0  0  0  0  0
   -3.0237    1.1353   11.7493 H   0  0  0  0  0  0  0  0  0  0  0  0
   -1.7780    1.4588   12.9500 H   0  0  0  0  0  0  0  0  0  0  0  0
   -1.5108    0.2379   11.6796 H   0  0  0  0  0  0  0  0  0  0  0  0
   -0.5943   -0.8021   14.1303 C   0  0  0  0  0  0  0  0  0  0  0  0
   -0.1523   -0.0081   13.5610 H   0  0  0  0  0  0  0  0  0  0  0  0
    2.2146    0.3278   13.6767 N   0  0  0  0  0  0  0  0  0  0  0  0
    3.1286    1.2742   13.2422 C   0  0  0  0  0  0  0  0  0  0  0  0
    2.6702    2.1743   12.1368 C   0  0  0  0  0  0  0  0  0  0  0  0
    1.3079    2.5610   12.0712 C   0  0  0  0  0  0  0  0  0  0  0  0
    0.6228    2.2157   12.8342 H   0  0  0  0  0  0  0  0  0  0  0  0
    0.8178    3.3700   11.0218 C   0  0  0  0  0  0  0  0  0  0  0  0
   -0.6277    3.7149   10.9041 C   0  0  0  0  0  0  0  0  0  0  0  0
   -1.1770    3.7201    9.8073 O   0  0  0  0  0  0  0  0  0  0  0  0
   -1.2323    4.0844   12.0326 N   0  0  0  0  0  0  0  0  0  0  0  0
   -0.6765    4.1752   12.8790 H   0  0  0  0  0  0  0  0  0  0  0  0
   -2.1973    4.3782   12.0031 H   0  0  0  0  0  0  0  0  0  0  0  0
    1.6820    3.8193   10.0097 C   0  0  0  0  0  0  0  0  0  0  0  0
    1.3233    4.4347    9.1966 H   0  0  0  0  0  0  0  0  0  0  0  0
    3.0319    3.4835   10.0635 C   0  0  0  0  0  0  0  0  0  0  0  0
    3.6880    3.8448    9.2887 H   0  0  0  0  0  0  0  0  0  0  0  0
    3.5198    2.6762   11.1020 C   0  0  0  0  0  0  0  0  0  0  0  0
    4.9896    2.4009   11.0487 C   0  0  0  0  0  0  0  0  0  0  0  0
    5.4024    2.7714   10.1173 H   0  0  0  0  0  0  0  0  0  0  0  0
    5.4350    3.0174   11.8201 H   0  0  0  0  0  0  0  0  0  0  0  0
    5.2178    1.3406   11.1609 H   0  0  0  0  0  0  0  0  0  0  0  0
    4.3773    1.3716   13.8076 C   0  0  0  0  0  0  0  0  0  0  0  0
    5.1144    2.1336   13.6014 H   0  0  0  0  0  0  0  0  0  0  0  0
  1  2  1  0
  2  7  1  0
  2  3  2  0
  3  4  1  0
  3  5  1  0
  5 50  1  0
  5  6  1  0
  6  7  2  0
  6  8  1  0
  8  9  1  0
  8 30  2  0
  9 10  1  0
  9 11  1  0
 11 28  1  0
 11 12  2  0
 12 13  1  0
 12 14  1  0
 14 15  1  0
 14 16  2  0
 16 17  1  0
 16 22  1  0
 17 18  1  0
 18 19  1  0
 18 20  1  0
 18 21  1  0
 22 23  1  0
 22 28  2  0
 23 24  1  0
 24 25  1  0
 24 26  1  0
 24 27  1  0
 28 29  1  0
 30 31  1  0
 31 32  1  0
 31 50  2  0
 32 45  1  0
 32 33  2  0
 33 34  1  0
 33 35  1  0
 35 36  1  0
 35 41  2  0
 36 37  2  0
 36 38  1  0
 38 39  1  0
 38 40  1  0
 41 42  1  0
 41 43  1  0
 43 44  1  0
 43 45  2  0
 45 46  1  0
 46 47  1  0
 46 48  1  0
 46 49  1  0
 50 51  1  0
M  END
$$$$
lig_CHEMBL3265033
     RDKit          3D

 54 59  0  0  1  0  0  0  0  0999 V2000
    1.2981    5.2293    8.2295 H   0  0  0  0  0  0  0  0  0  0  0  0
    1.0128    4.7115    9.1346 C   0  0  0  0  0  0  0  0  0  0  0  0
   -0.2140    4.8205    9.5839 N   0  0  0  0  0  0  0  0  0  0  0  0
   -0.2500    4.0793   10.7199 N   0  0  0  0  0  0  0  0  0  0  0  0
   -1.0947    4.0295   11.2692 H   0  0  0  0  0  0  0  0  0  0  0  0
    0.9506    3.4662   11.0272 C   0  0  0  0  0  0  0  0  0  0  0  0
    1.3767    2.6219   12.0661 C   0  0  0  0  0  0  0  0  0  0  0  0
    0.6894    2.3505   12.8531 H   0  0  0  0  0  0  0  0  0  0  0  0
    2.7048    2.1428   12.0851 C   0  0  0  0  0  0  0  0  0  0  0  0
    3.1694    1.2414   13.1587 C   0  0  0  0  0  0  0  0  0  0  0  0
    4.4510    1.3228   13.6459 C   0  0  0  0  0  0  0  0  0  0  0  0
    5.1996    2.0308   13.3085 H   0  0  0  0  0  0  0  0  0  0  0  0
    4.7735    0.5150   14.6843 N   0  0  0  0  0  0  0  0  0  0  0  0
    3.8479   -0.4020   15.2341 C   0  0  0  0  0  0  0  0  0  0  0  0
    4.3888   -1.0400   16.2715 N   0  0  0  0  0  0  0  0  0  0  0  0
    5.6554   -0.4934   16.4248 C   0  0  0  0  0  0  0  0  0  0  0  0
    6.2840   -0.8025   17.2442 H   0  0  0  0  0  0  0  0  0  0  0  0
    5.9250    0.4110   15.4360 C   0  0  0  0  0  0  0  0  0  0  0  0
    6.7881    1.0202   15.2117 H   0  0  0  0  0  0  0  0  0  0  0  0
    2.5585   -0.4386   14.6352 C   0  0  0  0  0  0  0  0  0  0  0  0
    1.6288   -1.3247   15.2072 N   0  0  0  0  0  0  0  0  0  0  0  0
    2.0344   -1.8817   15.9495 H   0  0  0  0  0  0  0  0  0  0  0  0
    0.2561   -1.5320   15.0017 C   0  0  0  0  0  0  0  0  0  0  0  0
   -0.5409   -0.8005   14.0917 C   0  0  0  0  0  0  0  0  0  0  0  0
   -0.1332   -0.0283   13.4615 H   0  0  0  0  0  0  0  0  0  0  0  0
   -1.9190   -1.0553   13.9827 C   0  0  0  0  0  0  0  0  0  0  0  0
   -2.5103   -0.4875   13.2792 H   0  0  0  0  0  0  0  0  0  0  0  0
   -2.5225   -2.0454   14.7780 C   0  0  0  0  0  0  0  0  0  0  0  0
   -3.8959   -2.2767   14.6422 N   0  0  0  0  0  0  0  0  0  0  0  0
   -4.1554   -3.4905   13.8742 C   0  0  0  0  0  0  0  0  0  0  0  0
   -3.4255   -3.5826   13.0694 H   0  0  0  0  0  0  0  0  0  0  0  0
   -4.0249   -4.3659   14.5131 H   0  0  0  0  0  0  0  0  0  0  0  0
   -5.5611   -3.4800   13.2686 C   0  0  0  0  0  0  0  0  0  0  0  0
   -5.7868   -4.4239   12.7747 H   0  0  0  0  0  0  0  0  0  0  0  0
   -5.6526   -2.6968   12.5158 H   0  0  0  0  0  0  0  0  0  0  0  0
   -6.8450   -3.1951   14.5545 S   0  0  0  0  0  0  0  0  0  0  0  0
   -7.6593   -4.4120   14.6819 O   0  0  0  0  0  0  0  0  0  0  0  0
   -7.4786   -1.9023   14.2544 O   0  0  0  0  0  0  0  0  0  0  0  0
   -5.8286   -3.0021   16.0750 C   0  0  0  0  0  0  0  0  0  0  0  0
   -5.4534   -3.9857   16.3578 H   0  0  0  0  0  0  0  0  0  0  0  0
   -6.4824   -2.6727   16.8840 H   0  0  0  0  0  0  0  0  0  0  0  0
   -4.6785   -2.0070   15.8546 C   0  0  0  0  0  0  0  0  0  0  0  0
   -4.0438   -1.9932   16.7427 H   0  0  0  0  0  0  0  0  0  0  0  0
   -5.0909   -1.0014   15.7688 H   0  0  0  0  0  0  0  0  0  0  0  0
   -1.7308   -2.8017   15.6692 C   0  0  0  0  0  0  0  0  0  0  0  0
   -2.1715   -3.5768   16.2796 H   0  0  0  0  0  0  0  0  0  0  0  0
   -0.3535   -2.5388   15.7814 C   0  0  0  0  0  0  0  0  0  0  0  0
    0.2337   -3.1160   16.4840 H   0  0  0  0  0  0  0  0  0  0  0  0
    2.2409    0.3440   13.6427 N   0  0  0  0  0  0  0  0  0  0  0  0
    3.5820    2.5617   11.0554 C   0  0  0  0  0  0  0  0  0  0  0  0
    4.6008    2.2053   11.0402 H   0  0  0  0  0  0  0  0  0  0  0  0
    3.1479    3.4125   10.0171 C   0  0  0  0  0  0  0  0  0  0  0  0
    3.8347    3.7041    9.2372 H   0  0  0  0  0  0  0  0  0  0  0  0
    1.8156    3.8788    9.9802 C   0  0  0  0  0  0  0  0  0  0  0  0
  1  2  1  0
  2 54  1  0
  2  3  2  0
  3  4  1  0
  4  5  1  0
  4  6  1  0
  6 54  2  0
  6  7  1  0
  7  8  1  0
  7  9  2  0
  9 10  1  0
  9 50  1  0
 10 49  1  0
 10 11  2  0
 11 12  1  0
 11 13  1  0
 13 18  1  0
 13 14  1  0
 14 15  2  0
 14 20  1  0
 15 16  1  0
 16 17  1  0
 16 18  2  0
 18 19  1  0
 20 21  1  0
 20 49  2  0
 21 22  1  0
 21 23  1  0
 23 47  1  0
 23 24  2  0
 24 25  1  0
 24 26  1  0
 26 27  1  0
 26 28  2  0
 28 29  1  0
 28 45  1  0
 29 42  1  0
 29 30  1  0
 30 31  1  0
 30 32  1  0
 30 33  1  0
 33 34  1  0
 33 35  1  0
 33 36  1  0
 36 37  2  0
 36 38  2  0
 36 39  1  0
 39 40  1  0
 39 41  1  0
 39 42  1  0
 42 43  1  0
 42 44  1  0
 45 46  1  0
 45 47  2  0
 47 48  1  0
 50 51  1  0
 50 52  2  0
 52 53  1  0
 52 54  1  0
M  END
$$$$
lig_CHEMBL3265006
     RDKit          3D

 51 54  0  0  1  0  0  0  0  0999 V2000
    6.2714   -0.8009   17.2915 H   0  0  0  0  0  0  0  0  0  0  0  0
    5.6451   -0.4956   16.4705 C   0  0  0  0  0  0  0  0  0  0  0  0
    5.9061    0.4148   15.4884 C   0  0  0  0  0  0  0  0  0  0  0  0
    6.7604    1.0313   15.2641 H   0  0  0  0  0  0  0  0  0  0  0  0
    4.7522    0.5124   14.7407 N   0  0  0  0  0  0  0  0  0  0  0  0
    3.8304   -0.4066   15.2876 C   0  0  0  0  0  0  0  0  0  0  0  0
    4.3754   -1.0439   16.3239 N   0  0  0  0  0  0  0  0  0  0  0  0
    2.5394   -0.4504   14.6864 C   0  0  0  0  0  0  0  0  0  0  0  0
    1.6090   -1.3553   15.2347 N   0  0  0  0  0  0  0  0  0  0  0  0
    2.0075   -1.9028   15.9883 H   0  0  0  0  0  0  0  0  0  0  0  0
    0.2342   -1.5709   15.0250 C   0  0  0  0  0  0  0  0  0  0  0  0
   -0.3650   -2.6036   15.7768 C   0  0  0  0  0  0  0  0  0  0  0  0
    0.2253   -3.1931   16.4670 H   0  0  0  0  0  0  0  0  0  0  0  0
   -1.7424   -2.8718   15.6638 C   0  0  0  0  0  0  0  0  0  0  0  0
   -2.1851   -3.6558   16.2604 H   0  0  0  0  0  0  0  0  0  0  0  0
   -2.5443   -2.1098   14.7910 C   0  0  0  0  0  0  0  0  0  0  0  0
   -3.8840   -2.3751   14.7066 O   0  0  0  0  0  0  0  0  0  0  0  0
   -4.2373   -3.1303   13.5575 C   0  0  0  0  0  0  0  0  0  0  0  0
   -5.3144   -3.2992   13.5414 H   0  0  0  0  0  0  0  0  0  0  0  0
   -3.9658   -2.6155   12.6354 H   0  0  0  0  0  0  0  0  0  0  0  0
   -3.7474   -4.1045   13.5672 H   0  0  0  0  0  0  0  0  0  0  0  0
   -1.9718   -1.0615   14.0355 C   0  0  0  0  0  0  0  0  0  0  0  0
   -2.8196   -0.3193   13.2347 O   0  0  0  0  0  0  0  0  0  0  0  0
   -2.2363    0.6645   12.3946 C   0  0  0  0  0  0  0  0  0  0  0  0
   -3.0055    1.1348   11.7830 H   0  0  0  0  0  0  0  0  0  0  0  0
   -1.7604    1.4464   12.9879 H   0  0  0  0  0  0  0  0  0  0  0  0
   -1.5040    0.2189   11.7192 H   0  0  0  0  0  0  0  0  0  0  0  0
   -0.5800   -0.8097   14.1514 C   0  0  0  0  0  0  0  0  0  0  0  0
   -0.1417   -0.0133   13.5813 H   0  0  0  0  0  0  0  0  0  0  0  0
    2.2221    0.3308   13.6931 N   0  0  0  0  0  0  0  0  0  0  0  0
    3.1485    1.2326   13.2165 C   0  0  0  0  0  0  0  0  0  0  0  0
    2.6863    2.1275   12.1387 C   0  0  0  0  0  0  0  0  0  0  0  0
    3.5886    2.6027   11.1582 C   0  0  0  0  0  0  0  0  0  0  0  0
    4.6289    2.3140   11.1912 H   0  0  0  0  0  0  0  0  0  0  0  0
    3.1498    3.4291   10.1086 C   0  0  0  0  0  0  0  0  0  0  0  0
    3.8540    3.7710    9.3638 H   0  0  0  0  0  0  0  0  0  0  0  0
    1.7935    3.7960   10.0247 C   0  0  0  0  0  0  0  0  0  0  0  0
    1.4611    4.4196    9.2063 H   0  0  0  0  0  0  0  0  0  0  0  0
    0.8787    3.3621   11.0093 C   0  0  0  0  0  0  0  0  0  0  0  0
   -0.5710    3.7260   10.8954 C   0  0  0  0  0  0  0  0  0  0  0  0
   -1.1359    3.7333    9.8011 O   0  0  0  0  0  0  0  0  0  0  0  0
   -1.1756    4.0689   12.0428 N   0  0  0  0  0  0  0  0  0  0  0  0
   -0.6052    4.1318   12.8798 H   0  0  0  0  0  0  0  0  0  0  0  0
   -2.5662    4.4981   12.1242 C   0  0  0  0  0  0  0  0  0  0  0  0
   -2.8246    4.7664   13.1470 H   0  0  0  0  0  0  0  0  0  0  0  0
   -3.2361    3.7039   11.7967 H   0  0  0  0  0  0  0  0  0  0  0  0
   -2.7243    5.3739   11.4963 H   0  0  0  0  0  0  0  0  0  0  0  0
    1.3325    2.5301   12.0571 C   0  0  0  0  0  0  0  0  0  0  0  0
    0.6291    2.1776   12.7991 H   0  0  0  0  0  0  0  0  0  0  0  0
    4.4296    1.3179   13.7038 C   0  0  0  0  0  0  0  0  0  0  0  0
    5.1798    2.0243   13.3682 H   0  0  0  0  0  0  0  0  0  0  0  0
  1  2  1  0
  2  7  1  0
  2  3  2  0
  3  4  1  0
  3  5  1  0
  5 50  1  0
  5  6  1  0
  6  7  2  0
  6  8  1  0
  8  9  1  0
  8 30  2  0
  9 10  1  0
  9 11  1  0
 11 28  1  0
 11 12  2  0
 12 13  1  0
 12 14  1  0
 14 15  1  0
 14 16  2  0
 16 17  1  0
 16 22  1  0
 17 18  1  0
 18 19  1  0
 18 20  1  0
 18 21  1  0
 22 23  1  0
 22 28  2  0
 23 24  1  0
 24 25  1  0
 24 26  1  0
 24 27  1  0
 28 29  1  0
 30 31  1  0
 31 32  1  0
 31 50  2  0
 32 48  1  0
 32 33  2  0
 33 34  1  0
 33 35  1  0
 35 36  1  0
 35 37  2  0
 37 38  1  0
 37 39  1  0
 39 40  1  0
 39 48  2  0
 40 41  2  0
 40 42  1  0
 42 43  1  0
 42 44  1  0
 44 45  1  0
 44 46  1  0
 44 47  1  0
 48 49  1  0
 50 51  1  0
M  END
$$$$
lig_CHEMBL3265024
     RDKit          3D

 50 54  0  0  1  0  0  0  0  0999 V2000
    6.2859   -0.8029   17.2405 H   0  0  0  0  0  0  0  0  0  0  0  0
    5.6536   -0.4922   16.4283 C   0  0  0  0  0  0  0  0  0  0  0  0
    5.9053    0.4335   15.4574 C   0  0  0  0  0  0  0  0  0  0  0  0
    6.7520    1.0647   15.2407 H   0  0  0  0  0  0  0  0  0  0  0  0
    4.7502    0.5329   14.7114 N   0  0  0  0  0  0  0  0  0  0  0  0
    3.8362   -0.4030   15.2468 C   0  0  0  0  0  0  0  0  0  0  0  0
    4.3903   -1.0520   16.2715 N   0  0  0  0  0  0  0  0  0  0  0  0
    2.5449   -0.4484   14.6454 C   0  0  0  0  0  0  0  0  0  0  0  0
    1.6148   -1.3510   15.1960 N   0  0  0  0  0  0  0  0  0  0  0  0
    2.0230   -1.9093   15.9375 H   0  0  0  0  0  0  0  0  0  0  0  0
    0.2331   -1.5518   15.0006 C   0  0  0  0  0  0  0  0  0  0  0  0
   -0.3692   -2.5889   15.7450 C   0  0  0  0  0  0  0  0  0  0  0  0
    0.2256   -3.1865   16.4227 H   0  0  0  0  0  0  0  0  0  0  0  0
   -1.7467   -2.8512   15.6297 C   0  0  0  0  0  0  0  0  0  0  0  0
   -2.1903   -3.6483   16.2082 H   0  0  0  0  0  0  0  0  0  0  0  0
   -2.5460   -2.0738   14.7700 C   0  0  0  0  0  0  0  0  0  0  0  0
   -3.8867   -2.3382   14.6766 O   0  0  0  0  0  0  0  0  0  0  0  0
   -4.2207   -3.1177   13.5400 C   0  0  0  0  0  0  0  0  0  0  0  0
   -5.2952   -3.2990   13.5271 H   0  0  0  0  0  0  0  0  0  0  0  0
   -3.7174   -4.0850   13.5690 H   0  0  0  0  0  0  0  0  0  0  0  0
   -3.9536   -2.6163   12.6085 H   0  0  0  0  0  0  0  0  0  0  0  0
   -1.9740   -1.0229   14.0204 C   0  0  0  0  0  0  0  0  0  0  0  0
   -2.8210   -0.2843   13.2177 O   0  0  0  0  0  0  0  0  0  0  0  0
   -2.2530    0.6804   12.3418 C   0  0  0  0  0  0  0  0  0  0  0  0
   -3.0403    1.1030   11.7174 H   0  0  0  0  0  0  0  0  0  0  0  0
   -1.7983    1.5002   12.8986 H   0  0  0  0  0  0  0  0  0  0  0  0
   -1.5108    0.2383   11.6755 H   0  0  0  0  0  0  0  0  0  0  0  0
   -0.5826   -0.7764   14.1392 C   0  0  0  0  0  0  0  0  0  0  0  0
   -0.1518    0.0317   13.5787 H   0  0  0  0  0  0  0  0  0  0  0  0
    2.2276    0.3349   13.6539 N   0  0  0  0  0  0  0  0  0  0  0  0
    3.1478    1.2478   13.1834 C   0  0  0  0  0  0  0  0  0  0  0  0
    2.6916    2.1426   12.1048 C   0  0  0  0  0  0  0  0  0  0  0  0
    3.5877    2.6055   11.1082 C   0  0  0  0  0  0  0  0  0  0  0  0
    4.6256    2.3053   11.1241 H   0  0  0  0  0  0  0  0  0  0  0  0
    3.1476    3.4470   10.0667 C   0  0  0  0  0  0  0  0  0  0  0  0
    3.8407    3.7867    9.3112 H   0  0  0  0  0  0  0  0  0  0  0  0
    1.7953    3.8264    9.9987 C   0  0  0  0  0  0  0  0  0  0  0  0
    0.9029    3.3957   11.0021 C   0  0  0  0  0  0  0  0  0  0  0  0
    1.3467    2.5706   12.0511 C   0  0  0  0  0  0  0  0  0  0  0  0
    0.6518    2.2592   12.8178 H   0  0  0  0  0  0  0  0  0  0  0  0
   -0.4391    3.8173   10.9497 N   0  0  0  0  0  0  0  0  0  0  0  0
   -1.0181    3.6719   11.7635 H   0  0  0  0  0  0  0  0  0  0  0  0
   -0.9578    4.4150    9.8702 C   0  0  0  0  0  0  0  0  0  0  0  0
   -2.1249    4.7969    9.8353 O   0  0  0  0  0  0  0  0  0  0  0  0
   -0.0407    4.5600    8.6407 C   0  0  0  0  0  0  0  0  0  0  0  0
   -0.3186    5.4549    8.0839 H   0  0  0  0  0  0  0  0  0  0  0  0
   -0.1950    3.7081    7.9784 H   0  0  0  0  0  0  0  0  0  0  0  0
    1.3527    4.6400    8.9818 O   0  0  0  0  0  0  0  0  0  0  0  0
    4.4197    1.3486   13.6847 C   0  0  0  0  0  0  0  0  0  0  0  0
    5.1608    2.0691   13.3604 H   0  0  0  0  0  0  0  0  0  0  0  0
  1  2  1  0
  2  7  1  0
  2  3  2  0
  3  4  1  0
  3  5  1  0
  5 49  1  0
  5  6  1  0
  6  7  2  0
  6  8  1  0
  8  9  1  0
  8 30  2  0
  9 10  1  0
  9 11  1  0
 11 28  1  0
 11 12  2  0
 12 13  1  0
 12 14  1  0
 14 15  1  0
 14 16  2  0
 16 17  1  0
 16 22  1  0
 17 18  1  0
 18 19  1  0
 18 20  1  0
 18 21  1  0
 22 23  1  0
 22 28  2  0
 23 24  1  0
 24 25  1  0
 24 26  1  0
 24 27  1  0
 28 29  1  0
 30 31  1  0
 31 32  1  0
 31 49  2  0
 32 39  1  0
 32 33  2  0
 33 34  1  0
 33 35  1  0
 35 36  1  0
 35 37  2  0
 37 48  1  0
 37 38  1  0
 38 39  2  0
 38 41  1  0
 39 40  1  0
 41 42  1  0
 41 43  1  0
 43 44  2  0
 43 45  1  0
 45 46  1  0
 45 47  1  0
 45 48  1  0
 49 50  1  0
M  END
$$$$
lig_CHEMBL3265012
     RDKit          3D

 48 51  0  0  1  0  0  0  0  0999 V2000
    6.2939   -0.8029   17.2322 H   0  0  0  0  0  0  0  0  0  0  0  0
    5.6574   -0.4841   16.4262 C   0  0  0  0  0  0  0  0  0  0  0  0
    5.9201    0.4081   15.4273 C   0  0  0  0  0  0  0  0  0  0  0  0
    6.7876    1.0057   15.1854 H   0  0  0  0  0  0  0  0  0  0  0  0
    4.7604    0.5077   14.6878 N   0  0  0  0  0  0  0  0  0  0  0  0
    3.8398   -0.4034   15.2509 C   0  0  0  0  0  0  0  0  0  0  0  0
    4.3893   -1.0312   16.2838 N   0  0  0  0  0  0  0  0  0  0  0  0
    2.5522   -0.4608   14.6495 C   0  0  0  0  0  0  0  0  0  0  0  0
    1.6166   -1.3581   15.1967 N   0  0  0  0  0  0  0  0  0  0  0  0
    2.0254   -1.9429   15.9179 H   0  0  0  0  0  0  0  0  0  0  0  0
    0.2378   -1.5490   14.9898 C   0  0  0  0  0  0  0  0  0  0  0  0
   -0.3729   -2.5906   15.7179 C   0  0  0  0  0  0  0  0  0  0  0  0
    0.2148   -3.1959   16.4011 H   0  0  0  0  0  0  0  0  0  0  0  0
   -1.7492   -2.8426   15.5905 C   0  0  0  0  0  0  0  0  0  0  0  0
   -2.1981   -3.6398   16.1631 H   0  0  0  0  0  0  0  0  0  0  0  0
   -2.5397   -2.0584   14.7279 C   0  0  0  0  0  0  0  0  0  0  0  0
   -3.8790   -2.3153   14.6219 O   0  0  0  0  0  0  0  0  0  0  0  0
   -4.2064   -3.1118   13.4937 C   0  0  0  0  0  0  0  0  0  0  0  0
   -5.2829   -3.2868   13.4719 H   0  0  0  0  0  0  0  0  0  0  0  0
   -3.9232   -2.6214   12.5617 H   0  0  0  0  0  0  0  0  0  0  0  0
   -3.7071   -4.0791   13.5487 H   0  0  0  0  0  0  0  0  0  0  0  0
   -1.9552   -1.0089   13.9866 C   0  0  0  0  0  0  0  0  0  0  0  0
   -2.7903   -0.2642   13.1801 O   0  0  0  0  0  0  0  0  0  0  0  0
   -2.2099    0.6920   12.3042 C   0  0  0  0  0  0  0  0  0  0  0  0
   -2.9852    1.1197   11.6733 H   0  0  0  0  0  0  0  0  0  0  0  0
   -1.7481    1.5109   12.8557 H   0  0  0  0  0  0  0  0  0  0  0  0
   -1.4687    0.2417   11.6413 H   0  0  0  0  0  0  0  0  0  0  0  0
   -0.5638   -0.7705   14.1214 C   0  0  0  0  0  0  0  0  0  0  0  0
   -0.1296    0.0408   13.5687 H   0  0  0  0  0  0  0  0  0  0  0  0
    2.2398    0.3188   13.6555 N   0  0  0  0  0  0  0  0  0  0  0  0
    3.1568    1.2246   13.1739 C   0  0  0  0  0  0  0  0  0  0  0  0
    2.6695    2.1235   12.1135 C   0  0  0  0  0  0  0  0  0  0  0  0
    1.3248    2.5476   12.1177 C   0  0  0  0  0  0  0  0  0  0  0  0
    0.6459    2.2485   12.9047 H   0  0  0  0  0  0  0  0  0  0  0  0
    0.8353    3.3880   11.1049 C   0  0  0  0  0  0  0  0  0  0  0  0
   -0.2034    3.6927   11.1315 H   0  0  0  0  0  0  0  0  0  0  0  0
    1.6911    3.8464   10.0833 C   0  0  0  0  0  0  0  0  0  0  0  0
    1.1355    4.7505    9.0283 C   0  0  0  0  0  0  0  0  0  0  0  0
    1.7463    5.7349    8.6255 O   0  0  0  0  0  0  0  0  0  0  0  0
   -0.0627    4.3991    8.5536 N   0  0  0  0  0  0  0  0  0  0  0  0
   -0.5196    3.5756    8.9154 H   0  0  0  0  0  0  0  0  0  0  0  0
   -0.5060    4.9523    7.8348 H   0  0  0  0  0  0  0  0  0  0  0  0
    3.0450    3.4676   10.0913 C   0  0  0  0  0  0  0  0  0  0  0  0
    3.8790    3.8930    9.1178 F   0  0  0  0  0  0  0  0  0  0  0  0
    3.5245    2.6075   11.0933 C   0  0  0  0  0  0  0  0  0  0  0  0
    4.5665    2.3172   11.0681 H   0  0  0  0  0  0  0  0  0  0  0  0
    4.4361    1.3106   13.6484 C   0  0  0  0  0  0  0  0  0  0  0  0
    5.1790    2.0229   13.3014 H   0  0  0  0  0  0  0  0  0  0  0  0
  1  2  1  0
  2  7  1  0
  2  3  2  0
  3  4  1  0
  3  5  1  0
  5 47  1  0
  5  6  1  0
  6  7  2  0
  6  8  1  0
  8  9  1  0
  8 30  2  0
  9 10  1  0
  9 11  1  0
 11 28  1  0
 11 12  2  0
 12 13  1  0
 12 14  1  0
 14 15  1  0
 14 16  2  0
 16 17  1  0
 16 22  1  0
 17 18  1  0
 18 19  1  0
 18 20  1  0
 18 21  1  0
 22 23  1  0
 22 28  2  0
 23 24  1  0
 24 25  1  0
 24 26  1  0
 24 27  1  0
 28 29  1  0
 30 31  1  0
 31 32  1  0
 31 47  2  0
 32 45  1  0
 32 33  2  0
 33 34  1  0
 33 35  1  0
 35 36  1  0
 35 37  2  0
 37 38  1  0
 37 43  1  0
 38 39  2  0
 38 40  1  0
 40 41  1  0
 40 42  1  0
 43 44  1  0
 43 45  2  0
 45 46  1  0
 47 48  1  0
M  END
$$$$
lig_CHEMBL3265026
     RDKit          3D

 51 55  0  0  1  0  0  0  0  0999 V2000
    6.2982   -0.8008   17.2423 H   0  0  0  0  0  0  0  0  0  0  0  0
    5.6610   -0.4938   16.4318 C   0  0  0  0  0  0  0  0  0  0  0  0
    5.9070    0.4338   15.4620 C   0  0  0  0  0  0  0  0  0  0  0  0
    6.7508    1.0696   15.2446 H   0  0  0  0  0  0  0  0  0  0  0  0
    4.7495    0.5295   14.7199 N   0  0  0  0  0  0  0  0  0  0  0  0
    3.8366   -0.4048   15.2576 C   0  0  0  0  0  0  0  0  0  0  0  0
    4.3958   -1.0498   16.2809 N   0  0  0  0  0  0  0  0  0  0  0  0
    2.5418   -0.4476   14.6629 C   0  0  0  0  0  0  0  0  0  0  0  0
    1.6151   -1.3550   15.2096 N   0  0  0  0  0  0  0  0  0  0  0  0
    2.0216   -1.9066   15.9566 H   0  0  0  0  0  0  0  0  0  0  0  0
    0.2353   -1.5555   15.0109 C   0  0  0  0  0  0  0  0  0  0  0  0
   -0.3639   -2.5930   15.7570 C   0  0  0  0  0  0  0  0  0  0  0  0
    0.2314   -3.1884   16.4367 H   0  0  0  0  0  0  0  0  0  0  0  0
   -1.7415   -2.8563   15.6452 C   0  0  0  0  0  0  0  0  0  0  0  0
   -2.1859   -3.6498   16.2297 H   0  0  0  0  0  0  0  0  0  0  0  0
   -2.5439   -2.0865   14.7817 C   0  0  0  0  0  0  0  0  0  0  0  0
   -3.8847   -2.3534   14.6909 O   0  0  0  0  0  0  0  0  0  0  0  0
   -4.2229   -3.1223   13.5472 C   0  0  0  0  0  0  0  0  0  0  0  0
   -5.2982   -3.3004   13.5349 H   0  0  0  0  0  0  0  0  0  0  0  0
   -3.7222   -4.0915   13.5677 H   0  0  0  0  0  0  0  0  0  0  0  0
   -3.9557   -2.6148   12.6185 H   0  0  0  0  0  0  0  0  0  0  0  0
   -1.9738   -1.0359   14.0283 C   0  0  0  0  0  0  0  0  0  0  0  0
   -2.8220   -0.2984   13.2244 O   0  0  0  0  0  0  0  0  0  0  0  0
   -2.2465    0.6715   12.3580 C   0  0  0  0  0  0  0  0  0  0  0  0
   -3.0239    1.0913   11.7196 H   0  0  0  0  0  0  0  0  0  0  0  0
   -1.8053    1.4925   12.9260 H   0  0  0  0  0  0  0  0  0  0  0  0
   -1.4886    0.2355   11.7035 H   0  0  0  0  0  0  0  0  0  0  0  0
   -0.5826   -0.7852   14.1473 C   0  0  0  0  0  0  0  0  0  0  0  0
   -0.1553    0.0233   13.5833 H   0  0  0  0  0  0  0  0  0  0  0  0
    2.2195    0.3360   13.6740 N   0  0  0  0  0  0  0  0  0  0  0  0
    3.1384    1.2482   13.1996 C   0  0  0  0  0  0  0  0  0  0  0  0
    2.6807    2.1377   12.1158 C   0  0  0  0  0  0  0  0  0  0  0  0
    3.5899    2.6272   11.1467 C   0  0  0  0  0  0  0  0  0  0  0  0
    4.6352    2.3542   11.1863 H   0  0  0  0  0  0  0  0  0  0  0  0
    3.1545    3.4537   10.0951 C   0  0  0  0  0  0  0  0  0  0  0  0
    3.8611    3.8105    9.3603 H   0  0  0  0  0  0  0  0  0  0  0  0
    1.7944    3.7951    9.9806 C   0  0  0  0  0  0  0  0  0  0  0  0
    0.8752    3.3377   10.9614 C   0  0  0  0  0  0  0  0  0  0  0  0
    1.3255    2.5275   12.0198 C   0  0  0  0  0  0  0  0  0  0  0  0
    0.6179    2.1878   12.7609 H   0  0  0  0  0  0  0  0  0  0  0  0
   -0.4864    3.6711   10.8908 N   0  0  0  0  0  0  0  0  0  0  0  0
   -1.0192    3.6521   11.7499 H   0  0  0  0  0  0  0  0  0  0  0  0
   -0.7974    4.7317    9.9442 C   0  0  0  0  0  0  0  0  0  0  0  0
   -0.5740    5.6980   10.4008 H   0  0  0  0  0  0  0  0  0  0  0  0
   -1.8669    4.7153    9.7295 H   0  0  0  0  0  0  0  0  0  0  0  0
    0.0034    4.5535    8.6428 C   0  0  0  0  0  0  0  0  0  0  0  0
   -0.2305    5.3583    7.9453 H   0  0  0  0  0  0  0  0  0  0  0  0
   -0.2527    3.6145    8.1481 H   0  0  0  0  0  0  0  0  0  0  0  0
    1.4003    4.5740    8.9162 O   0  0  0  0  0  0  0  0  0  0  0  0
    4.4134    1.3468   13.6967 C   0  0  0  0  0  0  0  0  0  0  0  0
    5.1545    2.0684   13.3731 H   0  0  0  0  0  0  0  0  0  0  0  0
  1  2  1  0
  2  7  1  0
  2  3  2  0
  3  4  1  0
  3  5  1  0
  5 50  1  0
  5  6  1  0
  6  7  2  0
  6  8  1  0
  8  9  1  0
  8 30  2  0
  9 10  1  0
  9 11  1  0
 11 28  1  0
 11 12  2  0
 12 13  1  0
 12 14  1  0
 14 15  1  0
 14 16  2  0
 16 17  1  0
 16 22  1  0
 17 18  1  0
 18 19  1  0
 18 20  1  0
 18 21  1  0
 22 23  1  0
 22 28  2  0
 23 24  1  0
 24 25  1  0
 24 26  1  0
 24 27  1  0
 28 29  1  0
 30 31  1  0
 31 32  1  0
 31 50  2  0
 32 39  1  0
 32 33  2  0
 33 34  1  0
 33 35  1  0
 35 36  1  0
 35 37  2  0
 37 49  1  0
 37 38  1  0
 38 39  2  0
 38 41  1  0
 39 40  1  0
 41 42  1  0
 41 43  1  0
 43 44  1  0
 43 45  1  0
 43 46  1  0
 46 47  1  0
 46 48  1  0
 46 49  1  0
 50 51  1  0
M  END
$$$$
lig_CHEMBL3265036
     RDKit          3D

 55 60  0  0  1  0  0  0  0  0999 V2000
    1.2582    5.1809    8.2272 H   0  0  0  0  0  0  0  0  0  0  0  0
    0.9831    4.6851    9.1422 C   0  0  0  0  0  0  0  0  0  0  0  0
   -0.2386    4.8054    9.6031 N   0  0  0  0  0  0  0  0  0  0  0  0
   -0.2630    4.0755   10.7471 N   0  0  0  0  0  0  0  0  0  0  0  0
   -1.0999    4.0363   11.3082 H   0  0  0  0  0  0  0  0  0  0  0  0
    0.9388    3.4627   11.0466 C   0  0  0  0  0  0  0  0  0  0  0  0
    1.3734    2.6279   12.0892 C   0  0  0  0  0  0  0  0  0  0  0  0
    0.6905    2.3576   12.8822 H   0  0  0  0  0  0  0  0  0  0  0  0
    2.7012    2.1456   12.0957 C   0  0  0  0  0  0  0  0  0  0  0  0
    3.1727    1.2453   13.1653 C   0  0  0  0  0  0  0  0  0  0  0  0
    4.4563    1.3198   13.6449 C   0  0  0  0  0  0  0  0  0  0  0  0
    5.2095    2.0192   13.2980 H   0  0  0  0  0  0  0  0  0  0  0  0
    4.7767    0.5119   14.6841 N   0  0  0  0  0  0  0  0  0  0  0  0
    3.8533   -0.4032   15.2337 C   0  0  0  0  0  0  0  0  0  0  0  0
    4.3947   -1.0431   16.2699 N   0  0  0  0  0  0  0  0  0  0  0  0
    5.6608   -0.4924   16.4275 C   0  0  0  0  0  0  0  0  0  0  0  0
    6.2853   -0.8021   17.2479 H   0  0  0  0  0  0  0  0  0  0  0  0
    5.9301    0.4052   15.4329 C   0  0  0  0  0  0  0  0  0  0  0  0
    6.7909    1.0144   15.2054 H   0  0  0  0  0  0  0  0  0  0  0  0
    2.5645   -0.4441   14.6349 C   0  0  0  0  0  0  0  0  0  0  0  0
    1.6368   -1.3404   15.1932 N   0  0  0  0  0  0  0  0  0  0  0  0
    2.0403   -1.9052   15.9306 H   0  0  0  0  0  0  0  0  0  0  0  0
    0.2606   -1.5349   14.9998 C   0  0  0  0  0  0  0  0  0  0  0  0
   -0.3613   -2.5324   15.7808 C   0  0  0  0  0  0  0  0  0  0  0  0
    0.2180   -3.1084   16.4899 H   0  0  0  0  0  0  0  0  0  0  0  0
   -1.7378   -2.8026   15.6472 C   0  0  0  0  0  0  0  0  0  0  0  0
   -2.1630   -3.5799   16.2635 H   0  0  0  0  0  0  0  0  0  0  0  0
   -2.5269   -2.0819   14.7182 C   0  0  0  0  0  0  0  0  0  0  0  0
   -3.8972   -2.3508   14.5119 N   0  0  0  0  0  0  0  0  0  0  0  0
   -4.1517   -2.8529   13.1596 C   0  0  0  0  0  0  0  0  0  0  0  0
   -4.0155   -2.0249   12.4654 H   0  0  0  0  0  0  0  0  0  0  0  0
   -3.3959   -3.5943   12.9064 H   0  0  0  0  0  0  0  0  0  0  0  0
   -5.5527   -3.4401   12.9224 C   0  0  0  0  0  0  0  0  0  0  0  0
   -6.3470   -2.8108   13.3256 H   0  0  0  0  0  0  0  0  0  0  0  0
   -5.7217   -3.4858   11.8436 H   0  0  0  0  0  0  0  0  0  0  0  0
   -5.6167   -4.7806   13.3921 O   0  0  0  0  0  0  0  0  0  0  0  0
   -5.9250   -4.9054   14.7761 C   0  0  0  0  0  0  0  0  0  0  0  0
   -6.0739   -5.9657   14.9797 H   0  0  0  0  0  0  0  0  0  0  0  0
   -6.8777   -4.4223   14.9991 H   0  0  0  0  0  0  0  0  0  0  0  0
   -4.8085   -4.3777   15.6953 C   0  0  0  0  0  0  0  0  0  0  0  0
   -3.8641   -4.8758   15.4728 H   0  0  0  0  0  0  0  0  0  0  0  0
   -5.0584   -4.6614   16.7197 H   0  0  0  0  0  0  0  0  0  0  0  0
   -4.6643   -2.8446   15.6574 C   0  0  0  0  0  0  0  0  0  0  0  0
   -4.1954   -2.5034   16.5827 H   0  0  0  0  0  0  0  0  0  0  0  0
   -5.6510   -2.3755   15.6557 H   0  0  0  0  0  0  0  0  0  0  0  0
   -1.9054   -1.0791   13.9467 C   0  0  0  0  0  0  0  0  0  0  0  0
   -2.4763   -0.5062   13.2312 H   0  0  0  0  0  0  0  0  0  0  0  0
   -0.5342   -0.8037   14.0899 C   0  0  0  0  0  0  0  0  0  0  0  0
   -0.1249   -0.0273   13.4671 H   0  0  0  0  0  0  0  0  0  0  0  0
    2.2460    0.3437   13.6480 N   0  0  0  0  0  0  0  0  0  0  0  0
    3.5704    2.5577   11.0553 C   0  0  0  0  0  0  0  0  0  0  0  0
    4.5924    2.2077   11.0406 H   0  0  0  0  0  0  0  0  0  0  0  0
    3.1271    3.3984   10.0136 C   0  0  0  0  0  0  0  0  0  0  0  0
    3.8097    3.6847    9.2272 H   0  0  0  0  0  0  0  0  0  0  0  0
    1.7950    3.8652    9.9872 C   0  0  0  0  0  0  0  0  0  0  0  0
  1  2  1  0
  2 55  1  0
  2  3  2  0
  3  4  1  0
  4  5  1  0
  4  6  1  0
  6 55  2  0
  6  7  1  0
  7  8  1  0
  7  9  2  0
  9 10  1  0
  9 51  1  0
 10 50  1  0
 10 11  2  0
 11 12  1  0
 11 13  1  0
 13 18  1  0
 13 14  1  0
 14 15  2  0
 14 20  1  0
 15 16  1  0
 16 17  1  0
 16 18  2  0
 18 19  1  0
 20 21  1  0
 20 50  2  0
 21 22  1  0
 21 23  1  0
 23 48  1  0
 23 24  2  0
 24 25  1  0
 24 26  1  0
 26 27  1  0
 26 28  2  0
 28 29  1  0
 28 46  1  0
 29 43  1  0
 29 30  1  0
 30 31  1  0
 30 32  1  0
 30 33  1  0
 33 34  1  0
 33 35  1  0
 33 36  1  0
 36 37  1  0
 37 38  1  0
 37 39  1  0
 37 40  1  0
 40 41  1  0
 40 42  1  0
 40 43  1  0
 43 44  1  0
 43 45  1  0
 46 47  1  0
 46 48  2  0
 48 49  1  0
 51 52  1  0
 51 53  2  0
 53 54  1  0
 53 55  1  0
M  END
$$$$
lig_CHEMBL3265023
     RDKit          3D

 50 54  0  0  1  0  0  0  0  0999 V2000
    4.6349    4.3979    8.8731 H   0  0  0  0  0  0  0  0  0  0  0  0
    3.6351    4.3373    9.1792 C   0  0  0  0  0  0  0  0  0  0  0  0
    2.7616    5.1385    8.6272 N   0  0  0  0  0  0  0  0  0  0  0  0
    1.5765    4.7743    9.1462 N   0  0  0  0  0  0  0  0  0  0  0  0
    0.3663    5.4379    8.7047 C   0  0  0  0  0  0  0  0  0  0  0  0
   -0.2121    5.7639    9.5695 H   0  0  0  0  0  0  0  0  0  0  0  0
    0.6010    6.3089    8.0924 H   0  0  0  0  0  0  0  0  0  0  0  0
   -0.2352    4.7416    8.1197 H   0  0  0  0  0  0  0  0  0  0  0  0
    1.7222    3.8192   10.1282 C   0  0  0  0  0  0  0  0  0  0  0  0
    0.8072    3.2903   11.0476 C   0  0  0  0  0  0  0  0  0  0  0  0
   -0.2309    3.5871   11.0137 H   0  0  0  0  0  0  0  0  0  0  0  0
    1.2695    2.4536   12.0807 C   0  0  0  0  0  0  0  0  0  0  0  0
    0.5716    2.0933   12.8228 H   0  0  0  0  0  0  0  0  0  0  0  0
    2.6329    2.0744   12.1373 C   0  0  0  0  0  0  0  0  0  0  0  0
    3.1239    1.1775   13.1996 C   0  0  0  0  0  0  0  0  0  0  0  0
    4.4059    1.2781   13.6771 C   0  0  0  0  0  0  0  0  0  0  0  0
    5.1463    1.9942   13.3370 H   0  0  0  0  0  0  0  0  0  0  0  0
    4.7443    0.4818   14.7165 N   0  0  0  0  0  0  0  0  0  0  0  0
    3.8329   -0.4378   15.2823 C   0  0  0  0  0  0  0  0  0  0  0  0
    4.3943   -1.0636   16.3143 N   0  0  0  0  0  0  0  0  0  0  0  0
    5.6606   -0.5073   16.4445 C   0  0  0  0  0  0  0  0  0  0  0  0
    6.3012   -0.8021   17.2576 H   0  0  0  0  0  0  0  0  0  0  0  0
    5.9064    0.3981   15.4528 C   0  0  0  0  0  0  0  0  0  0  0  0
    6.7573    1.0176   15.2141 H   0  0  0  0  0  0  0  0  0  0  0  0
    2.5368   -0.4984   14.6907 C   0  0  0  0  0  0  0  0  0  0  0  0
    1.5989   -1.3870   15.2493 N   0  0  0  0  0  0  0  0  0  0  0  0
    1.9968   -1.9593   15.9839 H   0  0  0  0  0  0  0  0  0  0  0  0
    0.2231   -1.5912   15.0261 C   0  0  0  0  0  0  0  0  0  0  0  0
   -0.3861   -2.6481   15.7354 C   0  0  0  0  0  0  0  0  0  0  0  0
    0.1990   -3.2626   16.4066 H   0  0  0  0  0  0  0  0  0  0  0  0
   -1.7605   -2.9114   15.5952 C   0  0  0  0  0  0  0  0  0  0  0  0
   -2.2091   -3.7206   16.1543 H   0  0  0  0  0  0  0  0  0  0  0  0
   -2.5522   -2.1238   14.7363 C   0  0  0  0  0  0  0  0  0  0  0  0
   -3.8906   -2.3909   14.6177 O   0  0  0  0  0  0  0  0  0  0  0  0
   -4.2075   -3.1443   13.4580 C   0  0  0  0  0  0  0  0  0  0  0  0
   -5.2823   -3.3183   13.4159 H   0  0  0  0  0  0  0  0  0  0  0  0
   -3.9156   -2.6246   12.5441 H   0  0  0  0  0  0  0  0  0  0  0  0
   -3.7117   -4.1155   13.4792 H   0  0  0  0  0  0  0  0  0  0  0  0
   -1.9721   -1.0550   14.0198 C   0  0  0  0  0  0  0  0  0  0  0  0
   -2.8086   -0.3045   13.2160 O   0  0  0  0  0  0  0  0  0  0  0  0
   -2.2185    0.6392   12.3323 C   0  0  0  0  0  0  0  0  0  0  0  0
   -2.9858    1.0521   11.6776 H   0  0  0  0  0  0  0  0  0  0  0  0
   -1.7739    1.4697   12.8821 H   0  0  0  0  0  0  0  0  0  0  0  0
   -1.4618    0.1769   11.6957 H   0  0  0  0  0  0  0  0  0  0  0  0
   -0.5859   -0.8011   14.1722 C   0  0  0  0  0  0  0  0  0  0  0  0
   -0.1565    0.0273   13.6425 H   0  0  0  0  0  0  0  0  0  0  0  0
    2.2137    0.2677   13.6893 N   0  0  0  0  0  0  0  0  0  0  0  0
    3.5274    2.6070   11.1763 C   0  0  0  0  0  0  0  0  0  0  0  0
    4.5768    2.3519   11.2050 H   0  0  0  0  0  0  0  0  0  0  0  0
    3.0904    3.5248   10.1973 C   0  0  0  0  0  0  0  0  0  0  0  0
  1  2  1  0
  2 50  1  0
  2  3  2  0
  3  4  1  0
  4  5  1  0
  4  9  1  0
  5  6  1  0
  5  7  1  0
  5  8  1  0
  9 50  2  0
  9 10  1  0
 10 11  1  0
 10 12  2  0
 12 13  1  0
 12 14  1  0
 14 15  1  0
 14 48  2  0
 15 47  1  0
 15 16  2  0
 16 17  1  0
 16 18  1  0
 18 23  1  0
 18 19  1  0
 19 20  2  0
 19 25  1  0
 20 21  1  0
 21 22  1  0
 21 23  2  0
 23 24  1  0
 25 26  1  0
 25 47  2  0
 26 27  1  0
 26 28  1  0
 28 45  1  0
 28 29  2  0
 29 30  1  0
 29 31  1  0
 31 32  1  0
 31 33  2  0
 33 34  1  0
 33 39  1  0
 34 35  1  0
 35 36  1  0
 35 37  1  0
 35 38  1  0
 39 40  1  0
 39 45  2  0
 40 41  1  0
 41 42  1  0
 41 43  1  0
 41 44  1  0
 45 46  1  0
 48 49  1  0
 48 50  1  0
M  END
$$$$
lig_CHEMBL3265016
     RDKit          3D

 48 52  0  0  1  0  0  0  0  0999 V2000
    6.2907   -0.7991   17.2535 H   0  0  0  0  0  0  0  0  0  0  0  0
    5.6553   -0.4958   16.4422 C   0  0  0  0  0  0  0  0  0  0  0  0
    5.9059    0.4307   15.4722 C   0  0  0  0  0  0  0  0  0  0  0  0
    6.7536    1.0619   15.2561 H   0  0  0  0  0  0  0  0  0  0  0  0
    4.7520    0.5246   14.7257 N   0  0  0  0  0  0  0  0  0  0  0  0
    3.8360   -0.4085   15.2682 C   0  0  0  0  0  0  0  0  0  0  0  0
    4.3908   -1.0488   16.2965 N   0  0  0  0  0  0  0  0  0  0  0  0
    2.5435   -0.4544   14.6677 C   0  0  0  0  0  0  0  0  0  0  0  0
    1.6134   -1.3600   15.2156 N   0  0  0  0  0  0  0  0  0  0  0  0
    2.0140   -1.9061   15.9685 H   0  0  0  0  0  0  0  0  0  0  0  0
    0.2337   -1.5602   15.0176 C   0  0  0  0  0  0  0  0  0  0  0  0
   -0.3699   -2.5974   15.7618 C   0  0  0  0  0  0  0  0  0  0  0  0
    0.2204   -3.1961   16.4422 H   0  0  0  0  0  0  0  0  0  0  0  0
   -1.7463   -2.8602   15.6445 C   0  0  0  0  0  0  0  0  0  0  0  0
   -2.1928   -3.6537   16.2270 H   0  0  0  0  0  0  0  0  0  0  0  0
   -2.5447   -2.0874   14.7796 C   0  0  0  0  0  0  0  0  0  0  0  0
   -3.8863   -2.3508   14.6875 O   0  0  0  0  0  0  0  0  0  0  0  0
   -4.2259   -3.1223   13.5464 C   0  0  0  0  0  0  0  0  0  0  0  0
   -5.3009   -3.3035   13.5314 H   0  0  0  0  0  0  0  0  0  0  0  0
   -3.7230   -4.0897   13.5700 H   0  0  0  0  0  0  0  0  0  0  0  0
   -3.9563   -2.6150   12.6189 H   0  0  0  0  0  0  0  0  0  0  0  0
   -1.9711   -1.0357   14.0332 C   0  0  0  0  0  0  0  0  0  0  0  0
   -2.8199   -0.2978   13.2309 O   0  0  0  0  0  0  0  0  0  0  0  0
   -2.2518    0.6720   12.3601 C   0  0  0  0  0  0  0  0  0  0  0  0
   -3.0342    1.0935   11.7285 H   0  0  0  0  0  0  0  0  0  0  0  0
   -1.8041    1.4926   12.9231 H   0  0  0  0  0  0  0  0  0  0  0  0
   -1.5032    0.2296   11.7001 H   0  0  0  0  0  0  0  0  0  0  0  0
   -0.5800   -0.7868   14.1557 C   0  0  0  0  0  0  0  0  0  0  0  0
   -0.1514    0.0217   13.5947 H   0  0  0  0  0  0  0  0  0  0  0  0
    2.2276    0.3182   13.6676 N   0  0  0  0  0  0  0  0  0  0  0  0
    3.1489    1.2295   13.1938 C   0  0  0  0  0  0  0  0  0  0  0  0
    2.6895    2.1207   12.1143 C   0  0  0  0  0  0  0  0  0  0  0  0
    3.5879    2.5942   11.1277 C   0  0  0  0  0  0  0  0  0  0  0  0
    4.6233    2.2929   11.1472 H   0  0  0  0  0  0  0  0  0  0  0  0
    3.1535    3.4438   10.0919 C   0  0  0  0  0  0  0  0  0  0  0  0
    3.8589    3.7882    9.3504 H   0  0  0  0  0  0  0  0  0  0  0  0
    1.8032    3.8420    9.9959 C   0  0  0  0  0  0  0  0  0  0  0  0
    0.9139    3.3662   10.9979 C   0  0  0  0  0  0  0  0  0  0  0  0
    1.3429    2.5346   12.0438 C   0  0  0  0  0  0  0  0  0  0  0  0
    0.6347    2.2162   12.7930 H   0  0  0  0  0  0  0  0  0  0  0  0
   -0.3213    3.8861   10.6735 N   0  0  0  0  0  0  0  0  0  0  0  0
   -1.1708    3.7516   11.1979 H   0  0  0  0  0  0  0  0  0  0  0  0
   -0.2449    4.6550    9.5237 C   0  0  0  0  0  0  0  0  0  0  0  0
   -1.1221    5.1439    9.1219 H   0  0  0  0  0  0  0  0  0  0  0  0
    1.0533    4.6589    9.0855 C   0  0  0  0  0  0  0  0  0  0  0  0
    1.4534    5.1746    8.2271 H   0  0  0  0  0  0  0  0  0  0  0  0
    4.4211    1.3366   13.6971 C   0  0  0  0  0  0  0  0  0  0  0  0
    5.1587    2.0611   13.3723 H   0  0  0  0  0  0  0  0  0  0  0  0
  1  2  1  0
  2  7  1  0
  2  3  2  0
  3  4  1  0
  3  5  1  0
  5 47  1  0
  5  6  1  0
  6  7  2  0
  6  8  1  0
  8  9  1  0
  8 30  2  0
  9 10  1  0
  9 11  1  0
 11 28  1  0
 11 12  2  0
 12 13  1  0
 12 14  1  0
 14 15  1  0
 14 16  2  0
 16 17  1  0
 16 22  1  0
 17 18  1  0
 18 19  1  0
 18 20  1  0
 18 21  1  0
 22 23  1  0
 22 28  2  0
 23 24  1  0
 24 25  1  0
 24 26  1  0
 24 27  1  0
 28 29  1  0
 30 31  1  0
 31 32  1  0
 31 47  2  0
 32 39  1  0
 32 33  2  0
 33 34  1  0
 33 35  1  0
 35 36  1  0
 35 37  2  0
 37 45  1  0
 37 38  1  0
 38 39  2  0
 38 41  1  0
 39 40  1  0
 41 42  1  0
 41 43  1  0
 43 44  1  0
 43 45  2  0
 45 46  1  0
 47 48  1  0
M  END
$$$$
lig_CHEMBL3265028
     RDKit          3D

 43 47  0  0  1  0  0  0  0  0999 V2000
    1.2749    5.1775    8.2304 H   0  0  0  0  0  0  0  0  0  0  0  0
    0.9849    4.6382    9.1179 C   0  0  0  0  0  0  0  0  0  0  0  0
   -0.2617    4.6816    9.5226 N   0  0  0  0  0  0  0  0  0  0  0  0
   -0.2991    3.9386   10.6563 N   0  0  0  0  0  0  0  0  0  0  0  0
   -1.1593    3.8420   11.1754 H   0  0  0  0  0  0  0  0  0  0  0  0
    0.9195    3.3854   10.9989 C   0  0  0  0  0  0  0  0  0  0  0  0
    1.3489    2.5549   12.0464 C   0  0  0  0  0  0  0  0  0  0  0  0
    0.6452    2.2411   12.8061 H   0  0  0  0  0  0  0  0  0  0  0  0
    2.6952    2.1319   12.1048 C   0  0  0  0  0  0  0  0  0  0  0  0
    3.1588    1.2395   13.1858 C   0  0  0  0  0  0  0  0  0  0  0  0
    4.4330    1.3368   13.6835 C   0  0  0  0  0  0  0  0  0  0  0  0
    5.1747    2.0575   13.3554 H   0  0  0  0  0  0  0  0  0  0  0  0
    4.7598    0.5274   14.7159 N   0  0  0  0  0  0  0  0  0  0  0  0
    3.8438   -0.4022   15.2572 C   0  0  0  0  0  0  0  0  0  0  0  0
    4.3941   -1.0410   16.2881 N   0  0  0  0  0  0  0  0  0  0  0  0
    5.6575   -0.4918   16.4396 C   0  0  0  0  0  0  0  0  0  0  0  0
    6.2920   -0.8022   17.2545 H   0  0  0  0  0  0  0  0  0  0  0  0
    5.9124    0.4312   15.4651 C   0  0  0  0  0  0  0  0  0  0  0  0
    6.7689    1.0576   15.2516 H   0  0  0  0  0  0  0  0  0  0  0  0
    2.5518   -0.4466   14.6567 C   0  0  0  0  0  0  0  0  0  0  0  0
    1.6246   -1.3451   15.2131 N   0  0  0  0  0  0  0  0  0  0  0  0
    2.0304   -1.8965   15.9583 H   0  0  0  0  0  0  0  0  0  0  0  0
    0.2488   -1.5580   15.0117 C   0  0  0  0  0  0  0  0  0  0  0  0
   -0.3356   -2.6128   15.7458 C   0  0  0  0  0  0  0  0  0  0  0  0
    0.2653   -3.2124   16.4164 H   0  0  0  0  0  0  0  0  0  0  0  0
   -1.7088   -2.8950   15.6331 C   0  0  0  0  0  0  0  0  0  0  0  0
   -2.1401   -3.7039   16.2068 H   0  0  0  0  0  0  0  0  0  0  0  0
   -2.5186   -2.1164   14.7885 C   0  0  0  0  0  0  0  0  0  0  0  0
   -3.5738   -2.3336   14.7164 H   0  0  0  0  0  0  0  0  0  0  0  0
   -1.9675   -1.0585   14.0413 C   0  0  0  0  0  0  0  0  0  0  0  0
   -2.8365   -0.3433   13.2433 O   0  0  0  0  0  0  0  0  0  0  0  0
   -2.2919    0.6367   12.3663 C   0  0  0  0  0  0  0  0  0  0  0  0
   -3.0885    1.0461   11.7462 H   0  0  0  0  0  0  0  0  0  0  0  0
   -1.8490    1.4643   12.9220 H   0  0  0  0  0  0  0  0  0  0  0  0
   -1.5452    0.2083   11.6955 H   0  0  0  0  0  0  0  0  0  0  0  0
   -0.5788   -0.7879   14.1571 C   0  0  0  0  0  0  0  0  0  0  0  0
   -0.1588    0.0292   13.5989 H   0  0  0  0  0  0  0  0  0  0  0  0
    2.2354    0.3309   13.6611 N   0  0  0  0  0  0  0  0  0  0  0  0
    3.5860    2.5957   11.1052 C   0  0  0  0  0  0  0  0  0  0  0  0
    4.6224    2.2886   11.1221 H   0  0  0  0  0  0  0  0  0  0  0  0
    3.1480    3.4367   10.0603 C   0  0  0  0  0  0  0  0  0  0  0  0
    3.8493    3.7665    9.3070 H   0  0  0  0  0  0  0  0  0  0  0  0
    1.7977    3.8403    9.9831 C   0  0  0  0  0  0  0  0  0  0  0  0
  1  2  1  0
  2 43  1  0
  2  3  2  0
  3  4  1  0
  4  5  1  0
  4  6  1  0
  6 43  2  0
  6  7  1  0
  7  8  1  0
  7  9  2  0
  9 10  1  0
  9 39  1  0
 10 38  1  0
 10 11  2  0
 11 12  1  0
 11 13  1  0
 13 18  1  0
 13 14  1  0
 14 15  2  0
 14 20  1  0
 15 16  1  0
 16 17  1  0
 16 18  2  0
 18 19  1  0
 20 21  1  0
 20 38  2  0
 21 22  1  0
 21 23  1  0
 23 36  1  0
 23 24  2  0
 24 25  1  0
 24 26  1  0
 26 27  1  0
 26 28  2  0
 28 29  1  0
 28 30  1  0
 30 31  1  0
 30 36  2  0
 31 32  1  0
 32 33  1  0
 32 34  1  0
 32 35  1  0
 36 37  1  0
 39 40  1  0
 39 41  2  0
 41 42  1  0
 41 43  1  0
M  END
$$$$
lig_CHEMBL3265018
     RDKit          3D

 47 51  0  0  1  0  0  0  0  0999 V2000
   -0.8818    5.1331    8.9722 H   0  0  0  0  0  0  0  0  0  0  0  0
   -0.0908    4.6033    9.4859 C   0  0  0  0  0  0  0  0  0  0  0  0
    1.1564    4.5945    9.0238 N   0  0  0  0  0  0  0  0  0  0  0  0
    1.8091    3.8166    9.9655 C   0  0  0  0  0  0  0  0  0  0  0  0
    3.1596    3.4178   10.0450 C   0  0  0  0  0  0  0  0  0  0  0  0
    3.8541    3.7441    9.2844 H   0  0  0  0  0  0  0  0  0  0  0  0
    3.5899    2.5874   11.1019 C   0  0  0  0  0  0  0  0  0  0  0  0
    4.6260    2.2812   11.1251 H   0  0  0  0  0  0  0  0  0  0  0  0
    2.6900    2.1340   12.1025 C   0  0  0  0  0  0  0  0  0  0  0  0
    3.1453    1.2426   13.1857 C   0  0  0  0  0  0  0  0  0  0  0  0
    4.4173    1.3446   13.6848 C   0  0  0  0  0  0  0  0  0  0  0  0
    5.1521    2.0727   13.3627 H   0  0  0  0  0  0  0  0  0  0  0  0
    4.7508    0.5302   14.7111 N   0  0  0  0  0  0  0  0  0  0  0  0
    3.8378   -0.4051   15.2487 C   0  0  0  0  0  0  0  0  0  0  0  0
    4.3946   -1.0526   16.2725 N   0  0  0  0  0  0  0  0  0  0  0  0
    5.6577   -0.4942   16.4251 C   0  0  0  0  0  0  0  0  0  0  0  0
    6.2902   -0.8032   17.2401 H   0  0  0  0  0  0  0  0  0  0  0  0
    5.9070    0.4336   15.4567 C   0  0  0  0  0  0  0  0  0  0  0  0
    6.7544    1.0650   15.2414 H   0  0  0  0  0  0  0  0  0  0  0  0
    2.5448   -0.4496   14.6513 C   0  0  0  0  0  0  0  0  0  0  0  0
    1.6148   -1.3512   15.2046 N   0  0  0  0  0  0  0  0  0  0  0  0
    2.0222   -1.9100   15.9447 H   0  0  0  0  0  0  0  0  0  0  0  0
    0.2338   -1.5532   15.0100 C   0  0  0  0  0  0  0  0  0  0  0  0
   -0.3667   -2.5907   15.7557 C   0  0  0  0  0  0  0  0  0  0  0  0
    0.2289   -3.1875   16.4328 H   0  0  0  0  0  0  0  0  0  0  0  0
   -1.7442   -2.8554   15.6430 C   0  0  0  0  0  0  0  0  0  0  0  0
   -2.1869   -3.6523   16.2229 H   0  0  0  0  0  0  0  0  0  0  0  0
   -2.5455   -2.0841   14.7795 C   0  0  0  0  0  0  0  0  0  0  0  0
   -3.8861   -2.3507   14.6871 O   0  0  0  0  0  0  0  0  0  0  0  0
   -4.2233   -3.1223   13.5451 C   0  0  0  0  0  0  0  0  0  0  0  0
   -5.2982   -3.3008   13.5330 H   0  0  0  0  0  0  0  0  0  0  0  0
   -3.7224   -4.0910   13.5673 H   0  0  0  0  0  0  0  0  0  0  0  0
   -3.9565   -2.6167   12.6157 H   0  0  0  0  0  0  0  0  0  0  0  0
   -1.9759   -1.0334   14.0287 C   0  0  0  0  0  0  0  0  0  0  0  0
   -2.8235   -0.2952   13.2246 O   0  0  0  0  0  0  0  0  0  0  0  0
   -2.2529    0.6720   12.3532 C   0  0  0  0  0  0  0  0  0  0  0  0
   -3.0385    1.0918   11.7243 H   0  0  0  0  0  0  0  0  0  0  0  0
   -1.8036    1.4926   12.9147 H   0  0  0  0  0  0  0  0  0  0  0  0
   -1.5042    0.2327   11.6912 H   0  0  0  0  0  0  0  0  0  0  0  0
   -0.5848   -0.7837   14.1472 C   0  0  0  0  0  0  0  0  0  0  0  0
   -0.1575    0.0228   13.5827 H   0  0  0  0  0  0  0  0  0  0  0  0
    2.2248    0.3313   13.6597 N   0  0  0  0  0  0  0  0  0  0  0  0
    1.3440    2.5594   12.0452 C   0  0  0  0  0  0  0  0  0  0  0  0
    0.6481    2.2535   12.8123 H   0  0  0  0  0  0  0  0  0  0  0  0
    0.9148    3.3761   10.9856 C   0  0  0  0  0  0  0  0  0  0  0  0
   -0.3052    3.9244   10.6253 N   0  0  0  0  0  0  0  0  0  0  0  0
   -1.1845    3.8628   11.1124 H   0  0  0  0  0  0  0  0  0  0  0  0
  1  2  1  0
  2 46  1  0
  2  3  2  0
  3  4  1  0
  4 45  2  0
  4  5  1  0
  5  6  1  0
  5  7  2  0
  7  8  1  0
  7  9  1  0
  9 10  1  0
  9 43  2  0
 10 42  1  0
 10 11  2  0
 11 12  1  0
 11 13  1  0
 13 18  1  0
 13 14  1  0
 14 15  2  0
 14 20  1  0
 15 16  1  0
 16 17  1  0
 16 18  2  0
 18 19  1  0
 20 21  1  0
 20 42  2  0
 21 22  1  0
 21 23  1  0
 23 40  1  0
 23 24  2  0
 24 25  1  0
 24 26  1  0
 26 27  1  0
 26 28  2  0
 28 29  1  0
 28 34  1  0
 29 30  1  0
 30 31  1  0
 30 32  1  0
 30 33  1  0
 34 35  1  0
 34 40  2  0
 35 36  1  0
 36 37  1  0
 36 38  1  0
 36 39  1  0
 40 41  1  0
 43 44  1  0
 43 45  1  0
 45 46  1  0
 46 47  1  0
M  END
$$$$
lig_CHEMBL3265037
     RDKit          3D

 56 61  0  0  1  0  0  0  0  0999 V2000
    1.2906    5.1608    8.2298 H   0  0  0  0  0  0  0  0  0  0  0  0
    0.9961    4.6277    9.1206 C   0  0  0  0  0  0  0  0  0  0  0  0
   -0.2535    4.6699    9.5195 N   0  0  0  0  0  0  0  0  0  0  0  0
   -0.2957    3.9304   10.6563 N   0  0  0  0  0  0  0  0  0  0  0  0
   -1.1580    3.8353   11.1710 H   0  0  0  0  0  0  0  0  0  0  0  0
    0.9226    3.3794   11.0093 C   0  0  0  0  0  0  0  0  0  0  0  0
    1.3511    2.5525   12.0609 C   0  0  0  0  0  0  0  0  0  0  0  0
    0.6465    2.2442   12.8176 H   0  0  0  0  0  0  0  0  0  0  0  0
    2.6964    2.1260   12.1191 C   0  0  0  0  0  0  0  0  0  0  0  0
    3.1619    1.2304   13.1958 C   0  0  0  0  0  0  0  0  0  0  0  0
    4.4401    1.3208   13.6873 C   0  0  0  0  0  0  0  0  0  0  0  0
    5.1885    2.0304   13.3487 H   0  0  0  0  0  0  0  0  0  0  0  0
    4.7658    0.5124   14.7233 N   0  0  0  0  0  0  0  0  0  0  0  0
    3.8389   -0.4037   15.2758 C   0  0  0  0  0  0  0  0  0  0  0  0
    4.3872   -1.0350   16.3138 N   0  0  0  0  0  0  0  0  0  0  0  0
    5.6593   -0.4915   16.4555 C   0  0  0  0  0  0  0  0  0  0  0  0
    6.2958   -0.8028   17.2660 H   0  0  0  0  0  0  0  0  0  0  0  0
    5.9231    0.4110   15.4671 C   0  0  0  0  0  0  0  0  0  0  0  0
    6.7818    1.0230   15.2397 H   0  0  0  0  0  0  0  0  0  0  0  0
    2.5462   -0.4477   14.6748 C   0  0  0  0  0  0  0  0  0  0  0  0
    1.6042   -1.3370   15.2270 N   0  0  0  0  0  0  0  0  0  0  0  0
    2.0055   -1.8999   15.9661 H   0  0  0  0  0  0  0  0  0  0  0  0
    0.2262   -1.5371   15.0082 C   0  0  0  0  0  0  0  0  0  0  0  0
   -0.3981   -2.5598   15.7495 C   0  0  0  0  0  0  0  0  0  0  0  0
    0.1764   -3.1579   16.4413 H   0  0  0  0  0  0  0  0  0  0  0  0
   -1.7774   -2.8043   15.6210 C   0  0  0  0  0  0  0  0  0  0  0  0
   -2.2250   -3.5897   16.2097 H   0  0  0  0  0  0  0  0  0  0  0  0
   -2.5656   -2.0422   14.7343 C   0  0  0  0  0  0  0  0  0  0  0  0
   -3.9430   -2.3049   14.6043 N   0  0  0  0  0  0  0  0  0  0  0  0
   -4.4737   -2.6794   13.2966 C   0  0  0  0  0  0  0  0  0  0  0  0
   -3.6718   -2.7250   12.5570 H   0  0  0  0  0  0  0  0  0  0  0  0
   -5.1771   -1.9245   12.9525 H   0  0  0  0  0  0  0  0  0  0  0  0
   -5.1823   -4.0422   13.3739 C   0  0  0  0  0  0  0  0  0  0  0  0
   -5.7003   -4.2410   12.4370 H   0  0  0  0  0  0  0  0  0  0  0  0
   -4.4615   -4.8505   13.5152 H   0  0  0  0  0  0  0  0  0  0  0  0
   -6.1317   -4.0378   14.4357 O   0  0  0  0  0  0  0  0  0  0  0  0
   -5.4957   -3.8795   15.7019 C   0  0  0  0  0  0  0  0  0  0  0  0
   -6.2476   -3.9539   16.4872 H   0  0  0  0  0  0  0  0  0  0  0  0
   -4.7893   -4.6956   15.8668 H   0  0  0  0  0  0  0  0  0  0  0  0
   -4.7939   -2.5080   15.7744 C   0  0  0  0  0  0  0  0  0  0  0  0
   -5.5370   -1.7091   15.7990 H   0  0  0  0  0  0  0  0  0  0  0  0
   -4.2264   -2.4272   16.7038 H   0  0  0  0  0  0  0  0  0  0  0  0
   -1.9606   -1.0088   13.9795 C   0  0  0  0  0  0  0  0  0  0  0  0
   -2.7782   -0.2580   13.1567 O   0  0  0  0  0  0  0  0  0  0  0  0
   -2.1821    0.7208   12.3172 C   0  0  0  0  0  0  0  0  0  0  0  0
   -2.9425    1.1634   11.6733 H   0  0  0  0  0  0  0  0  0  0  0  0
   -1.7395    1.5316   12.8971 H   0  0  0  0  0  0  0  0  0  0  0  0
   -1.4228    0.2869   11.6657 H   0  0  0  0  0  0  0  0  0  0  0  0
   -0.5690   -0.7679   14.1254 C   0  0  0  0  0  0  0  0  0  0  0  0
   -0.1233    0.0353   13.5694 H   0  0  0  0  0  0  0  0  0  0  0  0
    2.2367    0.3264   13.6748 N   0  0  0  0  0  0  0  0  0  0  0  0
    3.5888    2.5882   11.1219 C   0  0  0  0  0  0  0  0  0  0  0  0
    4.6235    2.2839   11.1452 H   0  0  0  0  0  0  0  0  0  0  0  0
    3.1538    3.4247   10.0745 C   0  0  0  0  0  0  0  0  0  0  0  0
    3.8554    3.7498    9.3233 H   0  0  0  0  0  0  0  0  0  0  0  0
    1.8054    3.8312    9.9937 C   0  0  0  0  0  0  0  0  0  0  0  0
  1  2  1  0
  2 56  1  0
  2  3  2  0
  3  4  1  0
  4  5  1  0
  4  6  1  0
  6 56  2  0
  6  7  1  0
  7  8  1  0
  7  9  2  0
  9 10  1  0
  9 52  1  0
 10 51  1  0
 10 11  2  0
 11 12  1  0
 11 13  1  0
 13 18  1  0
 13 14  1  0
 14 15  2  0
 14 20  1  0
 15 16  1  0
 16 17  1  0
 16 18  2  0
 18 19  1  0
 20 21  1  0
 20 51  2  0
 21 22  1  0
 21 23  1  0
 23 49  1  0
 23 24  2  0
 24 25  1  0
 24 26  1  0
 26 27  1  0
 26 28  2  0
 28 29  1  0
 28 43  1  0
 29 40  1  0
 29 30  1  0
 30 31  1  0
 30 32  1  0
 30 33  1  0
 33 34  1  0
 33 35  1  0
 33 36  1  0
 36 37  1  0
 37 38  1  0
 37 39  1  0
 37 40  1  0
 40 41  1  0
 40 42  1  0
 43 44  1  0
 43 49  2  0
 44 45  1  0
 45 46  1  0
 45 47  1  0
 45 48  1  0
 49 50  1  0
 52 53  1  0
 52 54  2  0
 54 55  1  0
 54 56  1  0
M  END
$$$$
lig_CHEMBL3265032
     RDKit          3D

 52 57  0  0  1  0  0  0  0  0999 V2000
    1.3147    5.2184    8.2258 H   0  0  0  0  0  0  0  0  0  0  0  0
    1.0240    4.6981    9.1264 C   0  0  0  0  0  0  0  0  0  0  0  0
   -0.2086    4.7987    9.5662 N   0  0  0  0  0  0  0  0  0  0  0  0
   -0.2501    4.0553   10.7020 N   0  0  0  0  0  0  0  0  0  0  0  0
   -1.1013    3.9876   11.2382 H   0  0  0  0  0  0  0  0  0  0  0  0
    0.9512    3.4517   11.0197 C   0  0  0  0  0  0  0  0  0  0  0  0
    1.3710    2.6058   12.0591 C   0  0  0  0  0  0  0  0  0  0  0  0
    0.6749    2.3198   12.8329 H   0  0  0  0  0  0  0  0  0  0  0  0
    2.7000    2.1329   12.0880 C   0  0  0  0  0  0  0  0  0  0  0  0
    3.1544    1.2380   13.1691 C   0  0  0  0  0  0  0  0  0  0  0  0
    4.4346    1.3278   13.6568 C   0  0  0  0  0  0  0  0  0  0  0  0
    5.1786    2.0398   13.3163 H   0  0  0  0  0  0  0  0  0  0  0  0
    4.7587    0.5194   14.6925 N   0  0  0  0  0  0  0  0  0  0  0  0
    3.8375   -0.4019   15.2422 C   0  0  0  0  0  0  0  0  0  0  0  0
    4.3922   -1.0464   16.2691 N   0  0  0  0  0  0  0  0  0  0  0  0
    5.6557   -0.4920   16.4233 C   0  0  0  0  0  0  0  0  0  0  0  0
    6.2856   -0.8013   17.2384 H   0  0  0  0  0  0  0  0  0  0  0  0
    5.9166    0.4175   15.4327 C   0  0  0  0  0  0  0  0  0  0  0  0
    6.7703    1.0401   15.2002 H   0  0  0  0  0  0  0  0  0  0  0  0
    2.5415   -0.4456   14.6488 C   0  0  0  0  0  0  0  0  0  0  0  0
    1.6130   -1.3581   15.1947 N   0  0  0  0  0  0  0  0  0  0  0  0
    2.0110   -1.9226   15.9369 H   0  0  0  0  0  0  0  0  0  0  0  0
    0.2341   -1.5615   14.9873 C   0  0  0  0  0  0  0  0  0  0  0  0
   -0.5548   -0.8139   14.0845 C   0  0  0  0  0  0  0  0  0  0  0  0
   -0.1468   -0.0406   13.4539 H   0  0  0  0  0  0  0  0  0  0  0  0
   -1.9333   -1.0535   13.9621 C   0  0  0  0  0  0  0  0  0  0  0  0
   -2.5040   -0.4610   13.2621 H   0  0  0  0  0  0  0  0  0  0  0  0
   -2.5718   -2.0223   14.7597 C   0  0  0  0  0  0  0  0  0  0  0  0
   -3.9659   -2.1649   14.6467 N   0  0  0  0  0  0  0  0  0  0  0  0
   -4.7595   -2.5141   15.8236 C   0  0  0  0  0  0  0  0  0  0  0  0
   -4.2134   -2.3014   16.7454 H   0  0  0  0  0  0  0  0  0  0  0  0
   -5.6513   -1.8811   15.8365 H   0  0  0  0  0  0  0  0  0  0  0  0
   -5.1714   -3.9995   15.7901 C   0  0  0  0  0  0  0  0  0  0  0  0
   -5.8669   -4.2055   16.6073 H   0  0  0  0  0  0  0  0  0  0  0  0
   -4.3064   -4.6527   15.9390 H   0  0  0  0  0  0  0  0  0  0  0  0
   -5.8031   -4.2971   14.5467 O   0  0  0  0  0  0  0  0  0  0  0  0
   -4.9043   -4.1198   13.4553 C   0  0  0  0  0  0  0  0  0  0  0  0
   -5.4013   -4.4165   12.5302 H   0  0  0  0  0  0  0  0  0  0  0  0
   -4.0391   -4.7784   13.5707 H   0  0  0  0  0  0  0  0  0  0  0  0
   -4.4768   -2.6407   13.3654 C   0  0  0  0  0  0  0  0  0  0  0  0
   -5.3231   -2.0170   13.0688 H   0  0  0  0  0  0  0  0  0  0  0  0
   -3.7158   -2.5384   12.5884 H   0  0  0  0  0  0  0  0  0  0  0  0
   -1.7898   -2.7952   15.6472 C   0  0  0  0  0  0  0  0  0  0  0  0
   -2.2394   -3.5625   16.2610 H   0  0  0  0  0  0  0  0  0  0  0  0
   -0.4001   -2.5691   15.7519 C   0  0  0  0  0  0  0  0  0  0  0  0
    0.1776   -3.1671   16.4447 H   0  0  0  0  0  0  0  0  0  0  0  0
    2.2244    0.3434   13.6602 N   0  0  0  0  0  0  0  0  0  0  0  0
    3.5868    2.5534   11.0635 C   0  0  0  0  0  0  0  0  0  0  0  0
    4.6113    2.2055   11.0562 H   0  0  0  0  0  0  0  0  0  0  0  0
    3.1584    3.4043   10.0228 C   0  0  0  0  0  0  0  0  0  0  0  0
    3.8523    3.7055    9.2503 H   0  0  0  0  0  0  0  0  0  0  0  0
    1.8240    3.8672    9.9780 C   0  0  0  0  0  0  0  0  0  0  0  0
  1  2  1  0
  2 52  1  0
  2  3  2  0
  3  4  1  0
  4  5  1  0
  4  6  1  0
  6 52  2  0
  6  7  1  0
  7  8  1  0
  7  9  2  0
  9 10  1  0
  9 48  1  0
 10 47  1  0
 10 11  2  0
 11 12  1  0
 11 13  1  0
 13 18  1  0
 13 14  1  0
 14 15  2  0
 14 20  1  0
 15 16  1  0
 16 17  1  0
 16 18  2  0
 18 19  1  0
 20 21  1  0
 20 47  2  0
 21 22  1  0
 21 23  1  0
 23 45  1  0
 23 24  2  0
 24 25  1  0
 24 26  1  0
 26 27  1  0
 26 28  2  0
 28 29  1  0
 28 43  1  0
 29 40  1  0
 29 30  1  0
 30 31  1  0
 30 32  1  0
 30 33  1  0
 33 34  1  0
 33 35  1  0
 33 36  1  0
 36 37  1  0
 37 38  1  0
 37 39  1  0
 37 40  1  0
 40 41  1  0
 40 42  1  0
 43 44  1  0
 43 45  2  0
 45 46  1  0
 48 49  1  0
 48 50  2  0
 50 51  1  0
 50 52  1  0
M  END
$$$$
lig_CHEMBL3265027
     RDKit          3D

 39 43  0  0  1  0  0  0  0  0999 V2000
    1.3050    5.1763    8.2286 H   0  0  0  0  0  0  0  0  0  0  0  0
    1.0004    4.6419    9.1168 C   0  0  0  0  0  0  0  0  0  0  0  0
   -0.2483    4.6829    9.5118 N   0  0  0  0  0  0  0  0  0  0  0  0
   -0.2949    3.9358   10.6453 N   0  0  0  0  0  0  0  0  0  0  0  0
   -1.1598    3.8312   11.1549 H   0  0  0  0  0  0  0  0  0  0  0  0
    0.9212    3.3828   10.9995 C   0  0  0  0  0  0  0  0  0  0  0  0
    1.3443    2.5503   12.0471 C   0  0  0  0  0  0  0  0  0  0  0  0
    0.6418    2.2332   12.8059 H   0  0  0  0  0  0  0  0  0  0  0  0
    2.6914    2.1301   12.1089 C   0  0  0  0  0  0  0  0  0  0  0  0
    3.1486    1.2401   13.1930 C   0  0  0  0  0  0  0  0  0  0  0  0
    4.4225    1.3392   13.6917 C   0  0  0  0  0  0  0  0  0  0  0  0
    5.1639    2.0593   13.3610 H   0  0  0  0  0  0  0  0  0  0  0  0
    4.7550    0.5269   14.7194 N   0  0  0  0  0  0  0  0  0  0  0  0
    3.8416   -0.4033   15.2622 C   0  0  0  0  0  0  0  0  0  0  0  0
    4.3977   -1.0503   16.2850 N   0  0  0  0  0  0  0  0  0  0  0  0
    5.6602   -0.4957   16.4371 C   0  0  0  0  0  0  0  0  0  0  0  0
    6.2966   -0.8027   17.2494 H   0  0  0  0  0  0  0  0  0  0  0  0
    5.9107    0.4279   15.4642 C   0  0  0  0  0  0  0  0  0  0  0  0
    6.7619    1.0525   15.2473 H   0  0  0  0  0  0  0  0  0  0  0  0
    2.5461   -0.4424   14.6671 C   0  0  0  0  0  0  0  0  0  0  0  0
    1.6166   -1.3306   15.2345 N   0  0  0  0  0  0  0  0  0  0  0  0
    2.0195   -1.8794   15.9837 H   0  0  0  0  0  0  0  0  0  0  0  0
    0.2437   -1.5547   15.0192 C   0  0  0  0  0  0  0  0  0  0  0  0
   -0.5810   -0.8103   14.1380 C   0  0  0  0  0  0  0  0  0  0  0  0
   -0.1986    0.0038   13.5438 H   0  0  0  0  0  0  0  0  0  0  0  0
   -1.9533   -1.1118   14.0131 C   0  0  0  0  0  0  0  0  0  0  0  0
   -2.5653   -0.5415   13.3293 H   0  0  0  0  0  0  0  0  0  0  0  0
   -2.5226   -2.1543   14.7699 C   0  0  0  0  0  0  0  0  0  0  0  0
   -3.5753   -2.3823   14.6804 H   0  0  0  0  0  0  0  0  0  0  0  0
   -1.7122   -2.9028   15.6447 C   0  0  0  0  0  0  0  0  0  0  0  0
   -2.1404   -3.7054   16.2307 H   0  0  0  0  0  0  0  0  0  0  0  0
   -0.3425   -2.6009   15.7654 C   0  0  0  0  0  0  0  0  0  0  0  0
    0.2603   -3.1839   16.4515 H   0  0  0  0  0  0  0  0  0  0  0  0
    2.2245    0.3342   13.6727 N   0  0  0  0  0  0  0  0  0  0  0  0
    3.5897    2.5952   11.1140 C   0  0  0  0  0  0  0  0  0  0  0  0
    4.6267    2.2916   11.1321 H   0  0  0  0  0  0  0  0  0  0  0  0
    3.1555    3.4399   10.0716 C   0  0  0  0  0  0  0  0  0  0  0  0
    3.8530    3.7746    9.3183 H   0  0  0  0  0  0  0  0  0  0  0  0
    1.8064    3.8426    9.9903 C   0  0  0  0  0  0  0  0  0  0  0  0
  1  2  1  0
  2 39  1  0
  2  3  2  0
  3  4  1  0
  4  5  1  0
  4  6  1  0
  6 39  2  0
  6  7  1  0
  7  8  1  0
  7  9  2  0
  9 10  1  0
  9 35  1  0
 10 34  1  0
 10 11  2  0
 11 12  1  0
 11 13  1  0
 13 18  1  0
 13 14  1  0
 14 15  2  0
 14 20  1  0
 15 16  1  0
 16 17  1  0
 16 18  2  0
 18 19  1  0
 20 21  1  0
 20 34  2  0
 21 22  1  0
 21 23  1  0
 23 32  1  0
 23 24  2  0
 24 25  1  0
 24 26  1  0
 26 27  1  0
 26 28  2  0
 28 29  1  0
 28 30  1  0
 30 31  1  0
 30 32  2  0
 32 33  1  0
 35 36  1  0
 35 37  2  0
 37 38  1  0
 37 39  1  0
M  END
$$$$
lig_CHEMBL3265017
     RDKit          3D

 47 51  0  0  1  0  0  0  0  0999 V2000
    1.2798    5.1786    8.2302 H   0  0  0  0  0  0  0  0  0  0  0  0
    0.9874    4.6391    9.1186 C   0  0  0  0  0  0  0  0  0  0  0  0
   -0.2596    4.6805    9.5242 N   0  0  0  0  0  0  0  0  0  0  0  0
   -0.2979    3.9375   10.6590 N   0  0  0  0  0  0  0  0  0  0  0  0
   -1.1599    3.8376   11.1736 H   0  0  0  0  0  0  0  0  0  0  0  0
    0.9195    3.3819   11.0024 C   0  0  0  0  0  0  0  0  0  0  0  0
    1.3483    2.5502   12.0482 C   0  0  0  0  0  0  0  0  0  0  0  0
    0.6482    2.2374   12.8070 H   0  0  0  0  0  0  0  0  0  0  0  0
    2.6949    2.1305   12.1037 C   0  0  0  0  0  0  0  0  0  0  0  0
    3.1568    1.2366   13.1824 C   0  0  0  0  0  0  0  0  0  0  0  0
    4.4285    1.3393   13.6865 C   0  0  0  0  0  0  0  0  0  0  0  0
    5.1675    2.0626   13.3626 H   0  0  0  0  0  0  0  0  0  0  0  0
    4.7567    0.5280   14.7183 N   0  0  0  0  0  0  0  0  0  0  0  0
    3.8389   -0.4030   15.2572 C   0  0  0  0  0  0  0  0  0  0  0  0
    4.3888   -1.0455   16.2873 N   0  0  0  0  0  0  0  0  0  0  0  0
    5.6548   -0.4910   16.4404 C   0  0  0  0  0  0  0  0  0  0  0  0
    6.2865   -0.8015   17.2551 H   0  0  0  0  0  0  0  0  0  0  0  0
    5.9101    0.4320   15.4681 C   0  0  0  0  0  0  0  0  0  0  0  0
    6.7621    1.0579   15.2562 H   0  0  0  0  0  0  0  0  0  0  0  0
    2.5490   -0.4493   14.6525 C   0  0  0  0  0  0  0  0  0  0  0  0
    1.6186   -1.3508   15.2026 N   0  0  0  0  0  0  0  0  0  0  0  0
    2.0224   -1.9040   15.9495 H   0  0  0  0  0  0  0  0  0  0  0  0
    0.2374   -1.5500   15.0086 C   0  0  0  0  0  0  0  0  0  0  0  0
   -0.3642   -2.5883   15.7516 C   0  0  0  0  0  0  0  0  0  0  0  0
    0.2284   -3.1870   16.4306 H   0  0  0  0  0  0  0  0  0  0  0  0
   -1.7407   -2.8544   15.6340 C   0  0  0  0  0  0  0  0  0  0  0  0
   -2.1850   -3.6495   16.2152 H   0  0  0  0  0  0  0  0  0  0  0  0
   -2.5395   -2.0806   14.7721 C   0  0  0  0  0  0  0  0  0  0  0  0
   -3.8808   -2.3432   14.6809 O   0  0  0  0  0  0  0  0  0  0  0  0
   -4.2200   -3.1192   13.5435 C   0  0  0  0  0  0  0  0  0  0  0  0
   -5.2948   -3.3013   13.5299 H   0  0  0  0  0  0  0  0  0  0  0  0
   -3.7160   -4.0857   13.5695 H   0  0  0  0  0  0  0  0  0  0  0  0
   -3.9518   -2.6149   12.6143 H   0  0  0  0  0  0  0  0  0  0  0  0
   -1.9687   -1.0261   14.0272 C   0  0  0  0  0  0  0  0  0  0  0  0
   -2.8190   -0.2884   13.2263 O   0  0  0  0  0  0  0  0  0  0  0  0
   -2.2568    0.6761   12.3480 C   0  0  0  0  0  0  0  0  0  0  0  0
   -3.0457    1.0970   11.7230 H   0  0  0  0  0  0  0  0  0  0  0  0
   -1.8018    1.4973   12.9037 H   0  0  0  0  0  0  0  0  0  0  0  0
   -1.5161    0.2295   11.6824 H   0  0  0  0  0  0  0  0  0  0  0  0
   -0.5781   -0.7754   14.1481 C   0  0  0  0  0  0  0  0  0  0  0  0
   -0.1496    0.0326   13.5867 H   0  0  0  0  0  0  0  0  0  0  0  0
    2.2344    0.3258   13.6542 N   0  0  0  0  0  0  0  0  0  0  0  0
    3.5878    2.5963   11.1061 C   0  0  0  0  0  0  0  0  0  0  0  0
    4.6213    2.2884   11.1208 H   0  0  0  0  0  0  0  0  0  0  0  0
    3.1519    3.4391   10.0626 C   0  0  0  0  0  0  0  0  0  0  0  0
    3.8502    3.7730    9.3082 H   0  0  0  0  0  0  0  0  0  0  0  0
    1.8000    3.8405    9.9865 C   0  0  0  0  0  0  0  0  0  0  0  0
  1  2  1  0
  2 47  1  0
  2  3  2  0
  3  4  1  0
  4  5  1  0
  4  6  1  0
  6 47  2  0
  6  7  1  0
  7  8  1  0
  7  9  2  0
  9 10  1  0
  9 43  1  0
 10 42  1  0
 10 11  2  0
 11 12  1  0
 11 13  1  0
 13 18  1  0
 13 14  1  0
 14 15  2  0
 14 20  1  0
 15 16  1  0
 16 17  1  0
 16 18  2  0
 18 19  1  0
 20 21  1  0
 20 42  2  0
 21 22  1  0
 21 23  1  0
 23 40  1  0
 23 24  2  0
 24 25  1  0
 24 26  1  0
 26 27  1  0
 26 28  2  0
 28 29  1  0
 28 34  1  0
 29 30  1  0
 30 31  1  0
 30 32  1  0
 30 33  1  0
 34 35  1  0
 34 40  2  0
 35 36  1  0
 36 37  1  0
 36 38  1  0
 36 39  1  0
 40 41  1  0
 43 44  1  0
 43 45  2  0
 45 46  1  0
 45 47  1  0
M  END
$$$$
lig_CHEMBL3265025
     RDKit          3D

 50 54  0  0  1  0  0  0  0  0999 V2000
    6.2932   -0.8020   17.2457 H   0  0  0  0  0  0  0  0  0  0  0  0
    5.6574   -0.4862   16.4374 C   0  0  0  0  0  0  0  0  0  0  0  0
    5.9036    0.4434   15.4690 C   0  0  0  0  0  0  0  0  0  0  0  0
    6.7493    1.0772   15.2513 H   0  0  0  0  0  0  0  0  0  0  0  0
    4.7512    0.5289   14.7161 N   0  0  0  0  0  0  0  0  0  0  0  0
    3.8382   -0.4032   15.2593 C   0  0  0  0  0  0  0  0  0  0  0  0
    4.3918   -1.0392   16.2909 N   0  0  0  0  0  0  0  0  0  0  0  0
    2.5501   -0.4607   14.6545 C   0  0  0  0  0  0  0  0  0  0  0  0
    1.6181   -1.3627   15.2019 N   0  0  0  0  0  0  0  0  0  0  0  0
    2.0172   -1.9219   15.9470 H   0  0  0  0  0  0  0  0  0  0  0  0
    0.2373   -1.5560   15.0016 C   0  0  0  0  0  0  0  0  0  0  0  0
   -0.3657   -2.5927   15.7458 C   0  0  0  0  0  0  0  0  0  0  0  0
    0.2237   -3.1950   16.4260 H   0  0  0  0  0  0  0  0  0  0  0  0
   -1.7427   -2.8495   15.6298 C   0  0  0  0  0  0  0  0  0  0  0  0
   -2.1877   -3.6401   16.2149 H   0  0  0  0  0  0  0  0  0  0  0  0
   -2.5393   -2.0746   14.7667 C   0  0  0  0  0  0  0  0  0  0  0  0
   -3.8803   -2.3363   14.6754 O   0  0  0  0  0  0  0  0  0  0  0  0
   -4.2176   -3.1166   13.5395 C   0  0  0  0  0  0  0  0  0  0  0  0
   -5.2923   -3.3024   13.5219 H   0  0  0  0  0  0  0  0  0  0  0  0
   -3.7115   -4.0826   13.5697 H   0  0  0  0  0  0  0  0  0  0  0  0
   -3.9475   -2.6111   12.6108 H   0  0  0  0  0  0  0  0  0  0  0  0
   -1.9674   -1.0220   14.0213 C   0  0  0  0  0  0  0  0  0  0  0  0
   -2.8199   -0.2796   13.2274 O   0  0  0  0  0  0  0  0  0  0  0  0
   -2.2500    0.6832   12.3526 C   0  0  0  0  0  0  0  0  0  0  0  0
   -3.0322    1.1090   11.7243 H   0  0  0  0  0  0  0  0  0  0  0  0
   -1.7937    1.5045   12.9079 H   0  0  0  0  0  0  0  0  0  0  0  0
   -1.5095    0.2339   11.6881 H   0  0  0  0  0  0  0  0  0  0  0  0
   -0.5753   -0.7733   14.1419 C   0  0  0  0  0  0  0  0  0  0  0  0
   -0.1430    0.0409   13.5891 H   0  0  0  0  0  0  0  0  0  0  0  0
    2.2330    0.3125   13.6571 N   0  0  0  0  0  0  0  0  0  0  0  0
    3.1470    1.2275   13.1811 C   0  0  0  0  0  0  0  0  0  0  0  0
    2.6696    2.1169   12.1064 C   0  0  0  0  0  0  0  0  0  0  0  0
    3.5590    2.5950   11.1147 C   0  0  0  0  0  0  0  0  0  0  0  0
    4.5936    2.2878   11.1245 H   0  0  0  0  0  0  0  0  0  0  0  0
    3.1130    3.4543   10.0932 C   0  0  0  0  0  0  0  0  0  0  0  0
    3.8080    3.7960    9.3422 H   0  0  0  0  0  0  0  0  0  0  0  0
    1.7635    3.8534   10.0621 C   0  0  0  0  0  0  0  0  0  0  0  0
    0.8577    3.3766   11.0327 C   0  0  0  0  0  0  0  0  0  0  0  0
    1.3147    2.5168   12.0466 C   0  0  0  0  0  0  0  0  0  0  0  0
    0.6146    2.1669   12.7890 H   0  0  0  0  0  0  0  0  0  0  0  0
   -0.4760    3.7049   10.9670 O   0  0  0  0  0  0  0  0  0  0  0  0
   -0.8211    4.9332   10.3098 C   0  0  0  0  0  0  0  0  0  0  0  0
   -1.8653    4.8683    9.9965 H   0  0  0  0  0  0  0  0  0  0  0  0
   -0.7548    5.7510   11.0291 H   0  0  0  0  0  0  0  0  0  0  0  0
    0.0675    5.2605    9.0916 C   0  0  0  0  0  0  0  0  0  0  0  0
   -0.3249    6.0421    8.2288 O   0  0  0  0  0  0  0  0  0  0  0  0
    1.2876    4.7089    9.0480 N   0  0  0  0  0  0  0  0  0  0  0  0
    1.9062    4.9616    8.2915 H   0  0  0  0  0  0  0  0  0  0  0  0
    4.4212    1.3360   13.6809 C   0  0  0  0  0  0  0  0  0  0  0  0
    5.1651    2.0564   13.3577 H   0  0  0  0  0  0  0  0  0  0  0  0
  1  2  1  0
  2  7  1  0
  2  3  2  0
  3  4  1  0
  3  5  1  0
  5 49  1  0
  5  6  1  0
  6  7  2  0
  6  8  1  0
  8  9  1  0
  8 30  2  0
  9 10  1  0
  9 11  1  0
 11 28  1  0
 11 12  2  0
 12 13  1  0
 12 14  1  0
 14 15  1  0
 14 16  2  0
 16 17  1  0
 16 22  1  0
 17 18  1  0
 18 19  1  0
 18 20  1  0
 18 21  1  0
 22 23  1  0
 22 28  2  0
 23 24  1  0
 24 25  1  0
 24 26  1  0
 24 27  1  0
 28 29  1  0
 30 31  1  0
 31 32  1  0
 31 49  2  0
 32 39  1  0
 32 33  2  0
 33 34  1  0
 33 35  1  0
 35 36  1  0
 35 37  2  0
 37 47  1  0
 37 38  1  0
 38 39  2  0
 38 41  1  0
 39 40  1  0
 41 42  1  0
 42 43  1  0
 42 44  1  0
 42 45  1  0
 45 46  2  0
 45 47  1  0
 47 48  1  0
 49 50  1  0
M  END
$$$$
lig_CHEMBL3265020
     RDKit          3D

 48 52  0  0  1  0  0  0  0  0999 V2000
    6.2901   -0.8037   17.2514 H   0  0  0  0  0  0  0  0  0  0  0  0
    5.6562   -0.4963   16.4383 C   0  0  0  0  0  0  0  0  0  0  0  0
    5.9114    0.4243   15.4640 C   0  0  0  0  0  0  0  0  0  0  0  0
    6.7647    1.0479   15.2450 H   0  0  0  0  0  0  0  0  0  0  0  0
    4.7552    0.5243   14.7208 N   0  0  0  0  0  0  0  0  0  0  0  0
    3.8360   -0.4029   15.2637 C   0  0  0  0  0  0  0  0  0  0  0  0
    4.3907   -1.0490   16.2892 N   0  0  0  0  0  0  0  0  0  0  0  0
    2.5440   -0.4478   14.6644 C   0  0  0  0  0  0  0  0  0  0  0  0
    1.6125   -1.3517   15.2097 N   0  0  0  0  0  0  0  0  0  0  0  0
    2.0206   -1.9259   15.9384 H   0  0  0  0  0  0  0  0  0  0  0  0
    0.2321   -1.5482   15.0116 C   0  0  0  0  0  0  0  0  0  0  0  0
   -0.3721   -2.5774   15.7629 C   0  0  0  0  0  0  0  0  0  0  0  0
    0.2202   -3.1671   16.4486 H   0  0  0  0  0  0  0  0  0  0  0  0
   -1.7486   -2.8414   15.6515 C   0  0  0  0  0  0  0  0  0  0  0  0
   -2.1951   -3.6234   16.2485 H   0  0  0  0  0  0  0  0  0  0  0  0
   -2.5479   -2.0805   14.7770 C   0  0  0  0  0  0  0  0  0  0  0  0
   -3.8875   -2.3520   14.6802 O   0  0  0  0  0  0  0  0  0  0  0  0
   -4.2193   -3.1237   13.5363 C   0  0  0  0  0  0  0  0  0  0  0  0
   -5.2935   -3.3082   13.5241 H   0  0  0  0  0  0  0  0  0  0  0  0
   -3.7128   -4.0899   13.5570 H   0  0  0  0  0  0  0  0  0  0  0  0
   -3.9556   -2.6134   12.6083 H   0  0  0  0  0  0  0  0  0  0  0  0
   -1.9763   -1.0305   14.0265 C   0  0  0  0  0  0  0  0  0  0  0  0
   -2.8269   -0.2918   13.2261 O   0  0  0  0  0  0  0  0  0  0  0  0
   -2.2616    0.6829   12.3584 C   0  0  0  0  0  0  0  0  0  0  0  0
   -3.0479    1.0961   11.7258 H   0  0  0  0  0  0  0  0  0  0  0  0
   -1.8196    1.5086   12.9190 H   0  0  0  0  0  0  0  0  0  0  0  0
   -1.5079    0.2478   11.6995 H   0  0  0  0  0  0  0  0  0  0  0  0
   -0.5854   -0.7787   14.1462 C   0  0  0  0  0  0  0  0  0  0  0  0
   -0.1564    0.0285   13.5836 H   0  0  0  0  0  0  0  0  0  0  0  0
    2.2272    0.3299   13.6697 N   0  0  0  0  0  0  0  0  0  0  0  0
    3.1502    1.2375   13.1953 C   0  0  0  0  0  0  0  0  0  0  0  0
    2.6906    2.1265   12.1137 C   0  0  0  0  0  0  0  0  0  0  0  0
    3.5923    2.5789   11.1217 C   0  0  0  0  0  0  0  0  0  0  0  0
    4.6267    2.2689   11.1459 H   0  0  0  0  0  0  0  0  0  0  0  0
    3.1577    3.4132   10.0776 C   0  0  0  0  0  0  0  0  0  0  0  0
    3.8537    3.7436    9.3224 H   0  0  0  0  0  0  0  0  0  0  0  0
    1.8056    3.7900   10.0193 C   0  0  0  0  0  0  0  0  0  0  0  0
    0.8646    3.3648   11.0001 C   0  0  0  0  0  0  0  0  0  0  0  0
    1.3419    2.5474   12.0474 C   0  0  0  0  0  0  0  0  0  0  0  0
    0.6464    2.2333   12.8105 H   0  0  0  0  0  0  0  0  0  0  0  0
   -0.4206    3.9011   10.6477 C   0  0  0  0  0  0  0  0  0  0  0  0
   -1.3406    3.7535   11.1941 H   0  0  0  0  0  0  0  0  0  0  0  0
   -0.2447    4.6228    9.4955 C   0  0  0  0  0  0  0  0  0  0  0  0
   -0.9610    5.1814    8.9088 H   0  0  0  0  0  0  0  0  0  0  0  0
    1.0893    4.5629    9.1281 N   0  0  0  0  0  0  0  0  0  0  0  0
    1.4625    5.0445    8.3233 H   0  0  0  0  0  0  0  0  0  0  0  0
    4.4249    1.3357   13.6910 C   0  0  0  0  0  0  0  0  0  0  0  0
    5.1670    2.0545   13.3630 H   0  0  0  0  0  0  0  0  0  0  0  0
  1  2  1  0
  2  7  1  0
  2  3  2  0
  3  4  1  0
  3  5  1  0
  5 47  1  0
  5  6  1  0
  6  7  2  0
  6  8  1  0
  8  9  1  0
  8 30  2  0
  9 10  1  0
  9 11  1  0
 11 28  1  0
 11 12  2  0
 12 13  1  0
 12 14  1  0
 14 15  1  0
 14 16  2  0
 16 17  1  0
 16 22  1  0
 17 18  1  0
 18 19  1  0
 18 20  1  0
 18 21  1  0
 22 23  1  0
 22 28  2  0
 23 24  1  0
 24 25  1  0
 24 26  1  0
 24 27  1  0
 28 29  1  0
 30 31  1  0
 31 32  1  0
 31 47  2  0
 32 39  1  0
 32 33  2  0
 33 34  1  0
 33 35  1  0
 35 36  1  0
 35 37  2  0
 37 45  1  0
 37 38  1  0
 38 39  2  0
 38 41  1  0
 39 40  1  0
 41 42  1  0
 41 43  2  0
 43 44  1  0
 43 45  1  0
 45 46  1  0
 47 48  1  0
M  END
$$$$
lig_CHEMBL3259820
     RDKit          3D

 48 51  0  0  1  0  0  0  0  0999 V2000
    6.3132   -0.7946   17.2785 H   0  0  0  0  0  0  0  0  0  0  0  0
    5.6729   -0.4905   16.4667 C   0  0  0  0  0  0  0  0  0  0  0  0
    5.9275    0.4139   15.4768 C   0  0  0  0  0  0  0  0  0  0  0  0
    6.7848    1.0274   15.2405 H   0  0  0  0  0  0  0  0  0  0  0  0
    4.7675    0.5109   14.7383 N   0  0  0  0  0  0  0  0  0  0  0  0
    3.8468   -0.4039   15.3000 C   0  0  0  0  0  0  0  0  0  0  0  0
    4.4030   -1.0376   16.3309 N   0  0  0  0  0  0  0  0  0  0  0  0
    2.5535   -0.4550   14.7034 C   0  0  0  0  0  0  0  0  0  0  0  0
    1.6155   -1.3478   15.2541 N   0  0  0  0  0  0  0  0  0  0  0  0
    2.0114   -1.9184   15.9914 H   0  0  0  0  0  0  0  0  0  0  0  0
    0.2399   -1.5532   15.0341 C   0  0  0  0  0  0  0  0  0  0  0  0
   -0.3640   -2.5878   15.7768 C   0  0  0  0  0  0  0  0  0  0  0  0
    0.2272   -3.1783   16.4642 H   0  0  0  0  0  0  0  0  0  0  0  0
   -1.7386   -2.8560   15.6541 C   0  0  0  0  0  0  0  0  0  0  0  0
   -2.1795   -3.6490   16.2420 H   0  0  0  0  0  0  0  0  0  0  0  0
   -2.5355   -2.0908   14.7819 C   0  0  0  0  0  0  0  0  0  0  0  0
   -3.8769   -2.3595   14.6893 O   0  0  0  0  0  0  0  0  0  0  0  0
   -4.2148   -3.1236   13.5437 C   0  0  0  0  0  0  0  0  0  0  0  0
   -5.2896   -3.3038   13.5317 H   0  0  0  0  0  0  0  0  0  0  0  0
   -3.9504   -2.6088   12.6189 H   0  0  0  0  0  0  0  0  0  0  0  0
   -3.7126   -4.0918   13.5599 H   0  0  0  0  0  0  0  0  0  0  0  0
   -1.9609   -1.0410   14.0324 C   0  0  0  0  0  0  0  0  0  0  0  0
   -2.8072   -0.3078   13.2234 O   0  0  0  0  0  0  0  0  0  0  0  0
   -2.2326    0.6713   12.3704 C   0  0  0  0  0  0  0  0  0  0  0  0
   -3.0088    1.1066   11.7417 H   0  0  0  0  0  0  0  0  0  0  0  0
   -1.7823    1.4799   12.9478 H   0  0  0  0  0  0  0  0  0  0  0  0
   -1.4825    0.2338   11.7096 H   0  0  0  0  0  0  0  0  0  0  0  0
   -0.5705   -0.7868   14.1614 C   0  0  0  0  0  0  0  0  0  0  0  0
   -0.1363    0.0184   13.5998 H   0  0  0  0  0  0  0  0  0  0  0  0
    2.2380    0.3157   13.7042 N   0  0  0  0  0  0  0  0  0  0  0  0
    3.1586    1.2159   13.2147 C   0  0  0  0  0  0  0  0  0  0  0  0
    2.6759    2.1123   12.1486 C   0  0  0  0  0  0  0  0  0  0  0  0
    1.3240    2.5158   12.1115 C   0  0  0  0  0  0  0  0  0  0  0  0
    0.6379    2.1832   12.8753 H   0  0  0  0  0  0  0  0  0  0  0  0
    0.8497    3.3696   11.1037 C   0  0  0  0  0  0  0  0  0  0  0  0
   -0.1883    3.6686   11.1211 H   0  0  0  0  0  0  0  0  0  0  0  0
    1.7268    3.8576   10.1150 C   0  0  0  0  0  0  0  0  0  0  0  0
    1.2245    4.8017    9.0708 C   0  0  0  0  0  0  0  0  0  0  0  0
    1.9098    5.7296    8.6497 O   0  0  0  0  0  0  0  0  0  0  0  0
    0.0121    4.5190    8.5943 N   0  0  0  0  0  0  0  0  0  0  0  0
   -0.4763    3.7052    8.9332 H   0  0  0  0  0  0  0  0  0  0  0  0
   -0.3826    5.0894    7.8604 H   0  0  0  0  0  0  0  0  0  0  0  0
    3.0853    3.4844   10.1514 C   0  0  0  0  0  0  0  0  0  0  0  0
    3.7771    3.8585    9.4097 H   0  0  0  0  0  0  0  0  0  0  0  0
    3.5507    2.6145   11.1565 C   0  0  0  0  0  0  0  0  0  0  0  0
    4.5916    2.3262   11.1562 H   0  0  0  0  0  0  0  0  0  0  0  0
    4.4396    1.3094   13.6970 C   0  0  0  0  0  0  0  0  0  0  0  0
    5.1859    2.0172   13.3544 H   0  0  0  0  0  0  0  0  0  0  0  0
  1  2  1  0
  2  7  1  0
  2  3  2  0
  3  4  1  0
  3  5  1  0
  5 47  1  0
  5  6  1  0
  6  7  2  0
  6  8  1  0
  8  9  1  0
  8 30  2  0
  9 10  1  0
  9 11  1  0
 11 28  1  0
 11 12  2  0
 12 13  1  0
 12 14  1  0
 14 15  1  0
 14 16  2  0
 16 17  1  0
 16 22  1  0
 17 18  1  0
 18 19  1  0
 18 20  1  0
 18 21  1  0
 22 23  1  0
 22 28  2  0
 23 24  1  0
 24 25  1  0
 24 26  1  0
 24 27  1  0
 28 29  1  0
 30 31  1  0
 31 32  1  0
 31 47  2  0
 32 45  1  0
 32 33  2  0
 33 34  1  0
 33 35  1  0
 35 36  1  0
 35 37  2  0
 37 38  1  0
 37 43  1  0
 38 39  2  0
 38 40  1  0
 40 41  1  0
 40 42  1  0
 43 44  1  0
 43 45  2  0
 45 46  1  0
 47 48  1  0
M  END
$$$$
lig_CHEMBL3265019
     RDKit          3D

 46 50  0  0  1  0  0  0  0  0999 V2000
    6.2950   -0.8018   17.2432 H   0  0  0  0  0  0  0  0  0  0  0  0
    5.6606   -0.4921   16.4339 C   0  0  0  0  0  0  0  0  0  0  0  0
    5.9104    0.4345   15.4642 C   0  0  0  0  0  0  0  0  0  0  0  0
    6.7568    1.0677   15.2480 H   0  0  0  0  0  0  0  0  0  0  0  0
    4.7524    0.5318   14.7189 N   0  0  0  0  0  0  0  0  0  0  0  0
    3.8404   -0.4067   15.2546 C   0  0  0  0  0  0  0  0  0  0  0  0
    4.3983   -1.0519   16.2795 N   0  0  0  0  0  0  0  0  0  0  0  0
    2.5469   -0.4499   14.6542 C   0  0  0  0  0  0  0  0  0  0  0  0
    1.6169   -1.3546   15.2022 N   0  0  0  0  0  0  0  0  0  0  0  0
    2.0229   -1.9131   15.9444 H   0  0  0  0  0  0  0  0  0  0  0  0
    0.2343   -1.5515   15.0124 C   0  0  0  0  0  0  0  0  0  0  0  0
   -0.3661   -2.5918   15.7551 C   0  0  0  0  0  0  0  0  0  0  0  0
    0.2264   -3.1903   16.4343 H   0  0  0  0  0  0  0  0  0  0  0  0
   -1.7435   -2.8569   15.6390 C   0  0  0  0  0  0  0  0  0  0  0  0
   -2.1887   -3.6531   16.2200 H   0  0  0  0  0  0  0  0  0  0  0  0
   -2.5431   -2.0820   14.7766 C   0  0  0  0  0  0  0  0  0  0  0  0
   -3.8845   -2.3475   14.6847 O   0  0  0  0  0  0  0  0  0  0  0  0
   -4.2234   -3.1214   13.5451 C   0  0  0  0  0  0  0  0  0  0  0  0
   -5.2976   -3.3032   13.5306 H   0  0  0  0  0  0  0  0  0  0  0  0
   -3.7199   -4.0880   13.5693 H   0  0  0  0  0  0  0  0  0  0  0  0
   -3.9549   -2.6159   12.6170 H   0  0  0  0  0  0  0  0  0  0  0  0
   -1.9721   -1.0277   14.0303 C   0  0  0  0  0  0  0  0  0  0  0  0
   -2.8224   -0.2922   13.2276 O   0  0  0  0  0  0  0  0  0  0  0  0
   -2.2600    0.6747   12.3521 C   0  0  0  0  0  0  0  0  0  0  0  0
   -3.0490    1.0950   11.7265 H   0  0  0  0  0  0  0  0  0  0  0  0
   -1.8079    1.4965   12.9103 H   0  0  0  0  0  0  0  0  0  0  0  0
   -1.5167    0.2317   11.6863 H   0  0  0  0  0  0  0  0  0  0  0  0
   -0.5812   -0.7794   14.1489 C   0  0  0  0  0  0  0  0  0  0  0  0
   -0.1531    0.0265   13.5869 H   0  0  0  0  0  0  0  0  0  0  0  0
    2.2279    0.3323   13.6609 N   0  0  0  0  0  0  0  0  0  0  0  0
    3.1449    1.2478   13.1896 C   0  0  0  0  0  0  0  0  0  0  0  0
    2.6856    2.1365   12.1062 C   0  0  0  0  0  0  0  0  0  0  0  0
    3.5832    2.5931   11.1047 C   0  0  0  0  0  0  0  0  0  0  0  0
    4.6192    2.2911   11.1289 H   0  0  0  0  0  0  0  0  0  0  0  0
    3.1509    3.4189   10.0441 C   0  0  0  0  0  0  0  0  0  0  0  0
    3.8500    3.7438    9.2866 H   0  0  0  0  0  0  0  0  0  0  0  0
    1.7976    3.8079    9.9627 C   0  0  0  0  0  0  0  0  0  0  0  0
    0.9199    3.3720   10.9788 C   0  0  0  0  0  0  0  0  0  0  0  0
    1.3383    2.5583   12.0440 C   0  0  0  0  0  0  0  0  0  0  0  0
    0.6311    2.2574   12.8016 H   0  0  0  0  0  0  0  0  0  0  0  0
   -0.2655    3.9464   10.5747 N   0  0  0  0  0  0  0  0  0  0  0  0
   -1.1533    3.8940   11.0505 H   0  0  0  0  0  0  0  0  0  0  0  0
   -0.1340    4.6480    9.4172 N   0  0  0  0  0  0  0  0  0  0  0  0
    1.1083    4.5735    9.0357 N   0  0  0  0  0  0  0  0  0  0  0  0
    4.4189    1.3470   13.6898 C   0  0  0  0  0  0  0  0  0  0  0  0
    5.1575    2.0736   13.3703 H   0  0  0  0  0  0  0  0  0  0  0  0
  1  2  1  0
  2  7  1  0
  2  3  2  0
  3  4  1  0
  3  5  1  0
  5 45  1  0
  5  6  1  0
  6  7  2  0
  6  8  1  0
  8  9  1  0
  8 30  2  0
  9 10  1  0
  9 11  1  0
 11 28  1  0
 11 12  2  0
 12 13  1  0
 12 14  1  0
 14 15  1  0
 14 16  2  0
 16 17  1  0
 16 22  1  0
 17 18  1  0
 18 19  1  0
 18 20  1  0
 18 21  1  0
 22 23  1  0
 22 28  2  0
 23 24  1  0
 24 25  1  0
 24 26  1  0
 24 27  1  0
 28 29  1  0
 30 31  1  0
 31 32  1  0
 31 45  2  0
 32 39  1  0
 32 33  2  0
 33 34  1  0
 33 35  1  0
 35 36  1  0
 35 37  2  0
 37 44  1  0
 37 38  1  0
 38 39  2  0
 38 41  1  0
 39 40  1  0
 41 42  1  0
 41 43  1  0
 43 44  2  0
 45 46  1  0
M  END
$$$$
lig_CHEMBL3265022
     RDKit          3D

 50 54  0  0  1  0  0  0  0  0999 V2000
    1.4466    5.2860    8.2273 H   0  0  0  0  0  0  0  0  0  0  0  0
    1.1112    4.7479    9.0991 C   0  0  0  0  0  0  0  0  0  0  0  0
   -0.1399    4.8428    9.4753 N   0  0  0  0  0  0  0  0  0  0  0  0
   -0.2499    4.0891   10.6002 N   0  0  0  0  0  0  0  0  0  0  0  0
   -1.5397    4.0379   11.2529 C   0  0  0  0  0  0  0  0  0  0  0  0
   -1.6104    3.1429   11.8598 H   0  0  0  0  0  0  0  0  0  0  0  0
   -1.6579    4.9086   11.8973 H   0  0  0  0  0  0  0  0  0  0  0  0
   -2.3394    4.0224   10.5108 H   0  0  0  0  0  0  0  0  0  0  0  0
    0.9418    3.4741   10.9670 C   0  0  0  0  0  0  0  0  0  0  0  0
    1.3256    2.6160   12.0173 C   0  0  0  0  0  0  0  0  0  0  0  0
    0.6025    2.3230   12.7636 H   0  0  0  0  0  0  0  0  0  0  0  0
    2.6592    2.1501   12.0991 C   0  0  0  0  0  0  0  0  0  0  0  0
    3.1102    1.2533   13.1854 C   0  0  0  0  0  0  0  0  0  0  0  0
    4.3917    1.3426   13.6727 C   0  0  0  0  0  0  0  0  0  0  0  0
    5.1343    2.0578   13.3372 H   0  0  0  0  0  0  0  0  0  0  0  0
    4.7300    0.5296   14.6992 N   0  0  0  0  0  0  0  0  0  0  0  0
    3.8206   -0.4012   15.2434 C   0  0  0  0  0  0  0  0  0  0  0  0
    4.3797   -1.0464   16.2686 N   0  0  0  0  0  0  0  0  0  0  0  0
    5.6442   -0.4898   16.4138 C   0  0  0  0  0  0  0  0  0  0  0  0
    6.2852   -0.8047   17.2218 H   0  0  0  0  0  0  0  0  0  0  0  0
    5.8909    0.4325   15.4378 C   0  0  0  0  0  0  0  0  0  0  0  0
    6.7418    1.0591   15.2153 H   0  0  0  0  0  0  0  0  0  0  0  0
    2.5243   -0.4458   14.6526 C   0  0  0  0  0  0  0  0  0  0  0  0
    1.6140   -1.3622   15.2108 N   0  0  0  0  0  0  0  0  0  0  0  0
    2.0373   -1.9181   15.9442 H   0  0  0  0  0  0  0  0  0  0  0  0
    0.2396   -1.5941   15.0272 C   0  0  0  0  0  0  0  0  0  0  0  0
   -0.3362   -2.6286   15.7940 C   0  0  0  0  0  0  0  0  0  0  0  0
    0.2726   -3.2026   16.4799 H   0  0  0  0  0  0  0  0  0  0  0  0
   -1.7087   -2.9204   15.6940 C   0  0  0  0  0  0  0  0  0  0  0  0
   -2.1324   -3.7102   16.2979 H   0  0  0  0  0  0  0  0  0  0  0  0
   -2.5283   -2.1856   14.8169 C   0  0  0  0  0  0  0  0  0  0  0  0
   -3.8651   -2.4816   14.7441 O   0  0  0  0  0  0  0  0  0  0  0  0
   -4.2266   -3.1881   13.5682 C   0  0  0  0  0  0  0  0  0  0  0  0
   -5.3016   -3.3671   13.5661 H   0  0  0  0  0  0  0  0  0  0  0  0
   -3.9800   -2.6397   12.6585 H   0  0  0  0  0  0  0  0  0  0  0  0
   -3.7262   -4.1558   13.5350 H   0  0  0  0  0  0  0  0  0  0  0  0
   -1.9797   -1.1357   14.0485 C   0  0  0  0  0  0  0  0  0  0  0  0
   -2.8417   -0.4289   13.2346 O   0  0  0  0  0  0  0  0  0  0  0  0
   -2.2861    0.5854   12.4159 C   0  0  0  0  0  0  0  0  0  0  0  0
   -3.0783    1.0415   11.8227 H   0  0  0  0  0  0  0  0  0  0  0  0
   -1.8390    1.3543   13.0464 H   0  0  0  0  0  0  0  0  0  0  0  0
   -1.5447    0.1781   11.7256 H   0  0  0  0  0  0  0  0  0  0  0  0
   -0.5938   -0.8514   14.1596 C   0  0  0  0  0  0  0  0  0  0  0  0
   -0.1762   -0.0475   13.5839 H   0  0  0  0  0  0  0  0  0  0  0  0
    2.1906    0.3447   13.6694 N   0  0  0  0  0  0  0  0  0  0  0  0
    3.5785    2.5808   11.1114 C   0  0  0  0  0  0  0  0  0  0  0  0
    4.6022    2.2373   11.1403 H   0  0  0  0  0  0  0  0  0  0  0  0
    3.1910    3.4398   10.0659 C   0  0  0  0  0  0  0  0  0  0  0  0
    3.9165    3.7439    9.3270 H   0  0  0  0  0  0  0  0  0  0  0  0
    1.8616    3.9017    9.9723 C   0  0  0  0  0  0  0  0  0  0  0  0
  1  2  1  0
  2 50  1  0
  2  3  2  0
  3  4  1  0
  4  5  1  0
  4  9  1  0
  5  6  1  0
  5  7  1  0
  5  8  1  0
  9 50  2  0
  9 10  1  0
 10 11  1  0
 10 12  2  0
 12 13  1  0
 12 46  1  0
 13 45  1  0
 13 14  2  0
 14 15  1  0
 14 16  1  0
 16 21  1  0
 16 17  1  0
 17 18  2  0
 17 23  1  0
 18 19  1  0
 19 20  1  0
 19 21  2  0
 21 22  1  0
 23 24  1  0
 23 45  2  0
 24 25  1  0
 24 26  1  0
 26 43  1  0
 26 27  2  0
 27 28  1  0
 27 29  1  0
 29 30  1  0
 29 31  2  0
 31 32  1  0
 31 37  1  0
 32 33  1  0
 33 34  1  0
 33 35  1  0
 33 36  1  0
 37 38  1  0
 37 43  2  0
 38 39  1  0
 39 40  1  0
 39 41  1  0
 39 42  1  0
 43 44  1  0
 46 47  1  0
 46 48  2  0
 48 49  1  0
 48 50  1  0
M  END
$$$$
lig_CHEMBL3265021
     RDKit          3D

 47 51  0  0  1  0  0  0  0  0999 V2000
   -1.3502    3.8681   11.1072 H   0  0  0  0  0  0  0  0  0  0  0  0
   -0.3889    3.9511   10.6222 C   0  0  0  0  0  0  0  0  0  0  0  0
   -0.2758    4.6516    9.5186 N   0  0  0  0  0  0  0  0  0  0  0  0
    1.0329    4.5682    9.1687 N   0  0  0  0  0  0  0  0  0  0  0  0
    1.3744    5.0549    8.3526 H   0  0  0  0  0  0  0  0  0  0  0  0
    1.7925    3.7958   10.0277 C   0  0  0  0  0  0  0  0  0  0  0  0
    3.1432    3.4165   10.0658 C   0  0  0  0  0  0  0  0  0  0  0  0
    3.8308    3.7455    9.3012 H   0  0  0  0  0  0  0  0  0  0  0  0
    3.5844    2.5825   11.1090 C   0  0  0  0  0  0  0  0  0  0  0  0
    4.6182    2.2713   11.1253 H   0  0  0  0  0  0  0  0  0  0  0  0
    2.6894    2.1297   12.1093 C   0  0  0  0  0  0  0  0  0  0  0  0
    3.1526    1.2398   13.1897 C   0  0  0  0  0  0  0  0  0  0  0  0
    4.4274    1.3370   13.6863 C   0  0  0  0  0  0  0  0  0  0  0  0
    5.1719    2.0537   13.3561 H   0  0  0  0  0  0  0  0  0  0  0  0
    4.7556    0.5244   14.7166 N   0  0  0  0  0  0  0  0  0  0  0  0
    3.8366   -0.4018   15.2614 C   0  0  0  0  0  0  0  0  0  0  0  0
    4.3880   -1.0403   16.2938 N   0  0  0  0  0  0  0  0  0  0  0  0
    5.6562   -0.4920   16.4379 C   0  0  0  0  0  0  0  0  0  0  0  0
    6.2938   -0.8016   17.2486 H   0  0  0  0  0  0  0  0  0  0  0  0
    5.9132    0.4225   15.4579 C   0  0  0  0  0  0  0  0  0  0  0  0
    6.7696    1.0410   15.2336 H   0  0  0  0  0  0  0  0  0  0  0  0
    2.5459   -0.4488   14.6588 C   0  0  0  0  0  0  0  0  0  0  0  0
    1.6154   -1.3511   15.2061 N   0  0  0  0  0  0  0  0  0  0  0  0
    2.0246   -1.9253   15.9336 H   0  0  0  0  0  0  0  0  0  0  0  0
    0.2355   -1.5484   15.0089 C   0  0  0  0  0  0  0  0  0  0  0  0
   -0.3679   -2.5795   15.7597 C   0  0  0  0  0  0  0  0  0  0  0  0
    0.2231   -3.1771   16.4417 H   0  0  0  0  0  0  0  0  0  0  0  0
   -1.7453   -2.8379   15.6472 C   0  0  0  0  0  0  0  0  0  0  0  0
   -2.1917   -3.6221   16.2421 H   0  0  0  0  0  0  0  0  0  0  0  0
   -2.5414   -2.0756   14.7731 C   0  0  0  0  0  0  0  0  0  0  0  0
   -3.8823   -2.3443   14.6776 O   0  0  0  0  0  0  0  0  0  0  0  0
   -4.2145   -3.1194   13.5366 C   0  0  0  0  0  0  0  0  0  0  0  0
   -5.2880   -3.3078   13.5202 H   0  0  0  0  0  0  0  0  0  0  0  0
   -3.7063   -4.0842   13.5600 H   0  0  0  0  0  0  0  0  0  0  0  0
   -3.9495   -2.6105   12.6088 H   0  0  0  0  0  0  0  0  0  0  0  0
   -1.9687   -1.0276   14.0206 C   0  0  0  0  0  0  0  0  0  0  0  0
   -2.8211   -0.2905   13.2224 O   0  0  0  0  0  0  0  0  0  0  0  0
   -2.2619    0.6824   12.3518 C   0  0  0  0  0  0  0  0  0  0  0  0
   -3.0498    1.0916   11.7196 H   0  0  0  0  0  0  0  0  0  0  0  0
   -1.8244    1.5117   12.9088 H   0  0  0  0  0  0  0  0  0  0  0  0
   -1.5098    0.2470   11.6928 H   0  0  0  0  0  0  0  0  0  0  0  0
   -0.5773   -0.7773   14.1418 C   0  0  0  0  0  0  0  0  0  0  0  0
   -0.1461    0.0298   13.5791 H   0  0  0  0  0  0  0  0  0  0  0  0
    2.2306    0.3303   13.6638 N   0  0  0  0  0  0  0  0  0  0  0  0
    1.3399    2.5508   12.0566 C   0  0  0  0  0  0  0  0  0  0  0  0
    0.6506    2.2321   12.8240 H   0  0  0  0  0  0  0  0  0  0  0  0
    0.8620    3.3749   11.0138 C   0  0  0  0  0  0  0  0  0  0  0  0
  1  2  1  0
  2 47  1  0
  2  3  2  0
  3  4  1  0
  4  5  1  0
  4  6  1  0
  6 47  2  0
  6  7  1  0
  7  8  1  0
  7  9  2  0
  9 10  1  0
  9 11  1  0
 11 12  1  0
 11 45  2  0
 12 44  1  0
 12 13  2  0
 13 14  1  0
 13 15  1  0
 15 20  1  0
 15 16  1  0
 16 17  2  0
 16 22  1  0
 17 18  1  0
 18 19  1  0
 18 20  2  0
 20 21  1  0
 22 23  1  0
 22 44  2  0
 23 24  1  0
 23 25  1  0
 25 42  1  0
 25 26  2  0
 26 27  1  0
 26 28  1  0
 28 29  1  0
 28 30  2  0
 30 31  1  0
 30 36  1  0
 31 32  1  0
 32 33  1  0
 32 34  1  0
 32 35  1  0
 36 37  1  0
 36 42  2  0
 37 38  1  0
 38 39  1  0
 38 40  1  0
 38 41  1  0
 42 43  1  0
 45 46  1  0
 45 47  1  0
M  END
$$$$
lig_CHEMBL3265013
     RDKit          3D

 51 54  0  0  1  0  0  0  0  0999 V2000
    6.3080   -0.8026   17.2475 H   0  0  0  0  0  0  0  0  0  0  0  0
    5.6693   -0.4998   16.4344 C   0  0  0  0  0  0  0  0  0  0  0  0
    5.9320    0.3959   15.4325 C   0  0  0  0  0  0  0  0  0  0  0  0
    6.7967    1.0033   15.2017 H   0  0  0  0  0  0  0  0  0  0  0  0
    4.7725    0.5065   14.6929 N   0  0  0  0  0  0  0  0  0  0  0  0
    3.8474   -0.4021   15.2564 C   0  0  0  0  0  0  0  0  0  0  0  0
    4.3956   -1.0358   16.2872 N   0  0  0  0  0  0  0  0  0  0  0  0
    2.5511   -0.4404   14.6583 C   0  0  0  0  0  0  0  0  0  0  0  0
    1.6253   -1.3555   15.2003 N   0  0  0  0  0  0  0  0  0  0  0  0
    2.0412   -1.9217   15.9235 H   0  0  0  0  0  0  0  0  0  0  0  0
    0.2464   -1.5653   15.0063 C   0  0  0  0  0  0  0  0  0  0  0  0
   -0.3434   -2.6070   15.7469 C   0  0  0  0  0  0  0  0  0  0  0  0
    0.2468   -3.1939   16.4356 H   0  0  0  0  0  0  0  0  0  0  0  0
   -1.7204   -2.8857   15.6307 C   0  0  0  0  0  0  0  0  0  0  0  0
   -2.1586   -3.6839   16.2161 H   0  0  0  0  0  0  0  0  0  0  0  0
   -2.5238   -2.1343   14.7603 C   0  0  0  0  0  0  0  0  0  0  0  0
   -3.8614   -2.4163   14.6631 O   0  0  0  0  0  0  0  0  0  0  0  0
   -4.1982   -3.1658   13.5016 C   0  0  0  0  0  0  0  0  0  0  0  0
   -5.2737   -3.3485   13.4895 H   0  0  0  0  0  0  0  0  0  0  0  0
   -3.9300   -2.6372   12.5838 H   0  0  0  0  0  0  0  0  0  0  0  0
   -3.6908   -4.1320   13.5103 H   0  0  0  0  0  0  0  0  0  0  0  0
   -1.9579   -1.0759   14.0130 C   0  0  0  0  0  0  0  0  0  0  0  0
   -2.8124   -0.3553   13.2017 O   0  0  0  0  0  0  0  0  0  0  0  0
   -2.2570    0.6486   12.3655 C   0  0  0  0  0  0  0  0  0  0  0  0
   -3.0413    1.0696   11.7390 H   0  0  0  0  0  0  0  0  0  0  0  0
   -1.8343    1.4522   12.9691 H   0  0  0  0  0  0  0  0  0  0  0  0
   -1.4879    0.2398   11.7054 H   0  0  0  0  0  0  0  0  0  0  0  0
   -0.5716   -0.8021   14.1429 C   0  0  0  0  0  0  0  0  0  0  0  0
   -0.1443    0.0111   13.5833 H   0  0  0  0  0  0  0  0  0  0  0  0
    2.2376    0.3420   13.6645 N   0  0  0  0  0  0  0  0  0  0  0  0
    3.1644    1.2378   13.1744 C   0  0  0  0  0  0  0  0  0  0  0  0
    2.6818    2.1497   12.1038 C   0  0  0  0  0  0  0  0  0  0  0  0
    3.5740    2.7003   11.1524 C   0  0  0  0  0  0  0  0  0  0  0  0
    4.6294    2.4534   11.1828 H   0  0  0  0  0  0  0  0  0  0  0  0
    3.1181    3.5658   10.1378 C   0  0  0  0  0  0  0  0  0  0  0  0
    3.8348    3.9575    9.4275 H   0  0  0  0  0  0  0  0  0  0  0  0
    1.7585    3.9208   10.0575 C   0  0  0  0  0  0  0  0  0  0  0  0
    1.2922    4.8508    8.9748 C   0  0  0  0  0  0  0  0  0  0  0  0
    0.3301    4.5844    8.2473 O   0  0  0  0  0  0  0  0  0  0  0  0
    1.9783    5.9936    8.8669 N   0  0  0  0  0  0  0  0  0  0  0  0
    2.7277    6.2055    9.5122 H   0  0  0  0  0  0  0  0  0  0  0  0
    1.6993    6.6613    8.1639 H   0  0  0  0  0  0  0  0  0  0  0  0
    0.8472    3.3683   10.9879 C   0  0  0  0  0  0  0  0  0  0  0  0
   -0.6318    3.7218   10.9512 C   0  0  0  0  0  0  0  0  0  0  0  0
   -1.1691    3.3243   11.8207 H   0  0  0  0  0  0  0  0  0  0  0  0
   -0.7652    4.8042   10.9725 H   0  0  0  0  0  0  0  0  0  0  0  0
   -1.1305    3.3334   10.0585 H   0  0  0  0  0  0  0  0  0  0  0  0
    1.3185    2.5094   12.0019 C   0  0  0  0  0  0  0  0  0  0  0  0
    0.6135    2.1199   12.7214 H   0  0  0  0  0  0  0  0  0  0  0  0
    4.4480    1.3066   13.6557 C   0  0  0  0  0  0  0  0  0  0  0  0
    5.2077    1.9977   13.3043 H   0  0  0  0  0  0  0  0  0  0  0  0
  1  2  1  0
  2  7  1  0
  2  3  2  0
  3  4  1  0
  3  5  1  0
  5 50  1  0
  5  6  1  0
  6  7  2  0
  6  8  1  0
  8  9  1  0
  8 30  2  0
  9 10  1  0
  9 11  1  0
 11 28  1  0
 11 12  2  0
 12 13  1  0
 12 14  1  0
 14 15  1  0
 14 16  2  0
 16 17  1  0
 16 22  1  0
 17 18  1  0
 18 19  1  0
 18 20  1  0
 18 21  1  0
 22 23  1  0
 22 28  2  0
 23 24  1  0
 24 25  1  0
 24 26  1  0
 24 27  1  0
 28 29  1  0
 30 31  1  0
 31 32  1  0
 31 50  2  0
 32 48  1  0
 32 33  2  0
 33 34  1  0
 33 35  1  0
 35 36  1  0
 35 37  2  0
 37 38  1  0
 37 43  1  0
 38 39  2  0
 38 40  1  0
 40 41  1  0
 40 42  1  0
 43 44  1  0
 43 48  2  0
 44 45  1  0
 44 46  1  0
 44 47  1  0
 48 49  1  0
 50 51  1  0
M  END
$$$$
lig_CHEMBL3265015
     RDKit          3D

 51 54  0  0  1  0  0  0  0  0999 V2000
    6.3270   -0.7891   17.2257 H   0  0  0  0  0  0  0  0  0  0  0  0
    5.6632   -0.4662   16.4451 C   0  0  0  0  0  0  0  0  0  0  0  0
    5.8975    0.4621   15.4670 C   0  0  0  0  0  0  0  0  0  0  0  0
    6.7442    1.0897   15.2245 H   0  0  0  0  0  0  0  0  0  0  0  0
    4.7377    0.5363   14.7155 N   0  0  0  0  0  0  0  0  0  0  0  0
    3.8319   -0.4022   15.2683 C   0  0  0  0  0  0  0  0  0  0  0  0
    4.3987   -1.0351   16.2985 N   0  0  0  0  0  0  0  0  0  0  0  0
    2.5540   -0.4896   14.6645 C   0  0  0  0  0  0  0  0  0  0  0  0
    1.6298   -1.4158   15.2151 N   0  0  0  0  0  0  0  0  0  0  0  0
    2.0200   -1.9306   16.0084 H   0  0  0  0  0  0  0  0  0  0  0  0
    0.2491   -1.6199   15.0366 C   0  0  0  0  0  0  0  0  0  0  0  0
   -0.3540   -2.5833   15.8660 C   0  0  0  0  0  0  0  0  0  0  0  0
    0.2348   -3.1529   16.5810 H   0  0  0  0  0  0  0  0  0  0  0  0
   -1.7332   -2.8546   15.7821 C   0  0  0  0  0  0  0  0  0  0  0  0
   -2.1721   -3.5988   16.4186 H   0  0  0  0  0  0  0  0  0  0  0  0
   -2.5335   -2.1264   14.8750 C   0  0  0  0  0  0  0  0  0  0  0  0
   -3.8825   -2.3954   14.8084 O   0  0  0  0  0  0  0  0  0  0  0  0
   -4.2429   -3.1845   13.6786 C   0  0  0  0  0  0  0  0  0  0  0  0
   -5.3135   -3.3783   13.6995 H   0  0  0  0  0  0  0  0  0  0  0  0
   -4.0138   -2.6734   12.7485 H   0  0  0  0  0  0  0  0  0  0  0  0
   -3.7263   -4.1436   13.6799 H   0  0  0  0  0  0  0  0  0  0  0  0
   -1.9582   -1.1437   14.0368 C   0  0  0  0  0  0  0  0  0  0  0  0
   -2.8106   -0.4633   13.1913 O   0  0  0  0  0  0  0  0  0  0  0  0
   -2.3047    0.5973   12.3933 C   0  0  0  0  0  0  0  0  0  0  0  0
   -3.0900    0.8939   11.7050 H   0  0  0  0  0  0  0  0  0  0  0  0
   -2.0433    1.4667   13.0055 H   0  0  0  0  0  0  0  0  0  0  0  0
   -1.4701    0.2752   11.7883 H   0  0  0  0  0  0  0  0  0  0  0  0
   -0.5665   -0.9199   14.1221 C   0  0  0  0  0  0  0  0  0  0  0  0
   -0.0819   -0.3383   13.3651 H   0  0  0  0  0  0  0  0  0  0  0  0
    2.2264    0.2585   13.6585 N   0  0  0  0  0  0  0  0  0  0  0  0
    3.1167    1.2106   13.1840 C   0  0  0  0  0  0  0  0  0  0  0  0
    2.6488    2.1262   12.1243 C   0  0  0  0  0  0  0  0  0  0  0  0
    3.5327    2.5256   11.0885 C   0  0  0  0  0  0  0  0  0  0  0  0
    4.5326    2.1218   11.0553 H   0  0  0  0  0  0  0  0  0  0  0  0
    3.1180    3.4035   10.0780 C   0  0  0  0  0  0  0  0  0  0  0  0
    3.8131    3.6655    9.3004 H   0  0  0  0  0  0  0  0  0  0  0  0
    1.8031    3.9003   10.0612 C   0  0  0  0  0  0  0  0  0  0  0  0
    1.3288    4.8761    9.0416 C   0  0  0  0  0  0  0  0  0  0  0  0
    0.1900    4.8219    8.5951 O   0  0  0  0  0  0  0  0  0  0  0  0
    2.2011    5.8223    8.6998 N   0  0  0  0  0  0  0  0  0  0  0  0
    3.0945    5.8677    9.1668 H   0  0  0  0  0  0  0  0  0  0  0  0
    1.9372    6.5153    8.0162 H   0  0  0  0  0  0  0  0  0  0  0  0
    0.9045    3.4785   11.0508 C   0  0  0  0  0  0  0  0  0  0  0  0
   -0.1146    3.8875   11.0756 H   0  0  0  0  0  0  0  0  0  0  0  0
    1.3311    2.6585   12.1136 C   0  0  0  0  0  0  0  0  0  0  0  0
    0.4029    2.5192   13.2972 C   0  0  0  0  0  0  0  0  0  0  0  0
    0.0640    1.5214   13.4540 H   0  0  0  0  0  0  0  0  0  0  0  0
    0.9018    2.7979   14.2125 H   0  0  0  0  0  0  0  0  0  0  0  0
   -0.4884    3.1245   13.2144 H   0  0  0  0  0  0  0  0  0  0  0  0
    4.3850    1.3373   13.6899 C   0  0  0  0  0  0  0  0  0  0  0  0
    5.1168    2.0645   13.3530 H   0  0  0  0  0  0  0  0  0  0  0  0
  1  2  1  0
  2  7  1  0
  2  3  2  0
  3  4  1  0
  3  5  1  0
  5 50  1  0
  5  6  1  0
  6  7  2  0
  6  8  1  0
  8  9  1  0
  8 30  2  0
  9 10  1  0
  9 11  1  0
 11 28  1  0
 11 12  2  0
 12 13  1  0
 12 14  1  0
 14 15  1  0
 14 16  2  0
 16 17  1  0
 16 22  1  0
 17 18  1  0
 18 19  1  0
 18 20  1  0
 18 21  1  0
 22 23  1  0
 22 28  2  0
 23 24  1  0
 24 25  1  0
 24 26  1  0
 24 27  1  0
 28 29  1  0
 30 31  1  0
 31 32  1  0
 31 50  2  0
 32 45  1  0
 32 33  2  0
 33 34  1  0
 33 35  1  0
 35 36  1  0
 35 37  2  0
 37 38  1  0
 37 43  1  0
 38 39  2  0
 38 40  1  0
 40 41  1  0
 40 42  1  0
 43 44  1  0
 43 45  2  0
 45 46  1  0
 46 47  1  0
 46 48  1  0
 46 49  1  0
 50 51  1  0
M  END
$$$$
lig_CHEMBL3265031
     RDKit          3D

 58 63  0  0  1  0  0  0  0  0999 V2000
   -7.9632   -3.1508   14.9079 H   0  0  0  0  0  0  0  0  0  0  0  0
   -7.2936   -2.9843   14.2606 O   0  0  0  0  0  0  0  0  0  0  0  0
   -6.2852   -3.9705   14.3994 C   0  0  0  0  0  0  0  0  0  0  0  0
   -6.9838   -5.3416   14.3395 C   0  0  0  0  0  0  0  0  0  0  0  0
   -6.2642   -6.1560   14.4286 H   0  0  0  0  0  0  0  0  0  0  0  0
   -7.5178   -5.4790   13.3984 H   0  0  0  0  0  0  0  0  0  0  0  0
   -7.7068   -5.4621   15.1471 H   0  0  0  0  0  0  0  0  0  0  0  0
   -5.5614   -3.7692   15.7547 C   0  0  0  0  0  0  0  0  0  0  0  0
   -6.2734   -3.8010   16.5822 H   0  0  0  0  0  0  0  0  0  0  0  0
   -4.8690   -4.5959   15.9194 H   0  0  0  0  0  0  0  0  0  0  0  0
   -4.7639   -2.4539   15.8096 C   0  0  0  0  0  0  0  0  0  0  0  0
   -5.4474   -1.6047   15.8338 H   0  0  0  0  0  0  0  0  0  0  0  0
   -4.1828   -2.4041   16.7321 H   0  0  0  0  0  0  0  0  0  0  0  0
   -3.9099   -2.3229   14.6345 N   0  0  0  0  0  0  0  0  0  0  0  0
   -2.5370   -2.0848   14.7701 C   0  0  0  0  0  0  0  0  0  0  0  0
   -1.9299   -1.0706   14.0044 C   0  0  0  0  0  0  0  0  0  0  0  0
   -2.5205   -0.4779   13.3219 H   0  0  0  0  0  0  0  0  0  0  0  0
   -0.5576   -0.8008   14.1389 C   0  0  0  0  0  0  0  0  0  0  0  0
   -0.1553    0.0057   13.5512 H   0  0  0  0  0  0  0  0  0  0  0  0
    0.2406   -1.5575   15.0314 C   0  0  0  0  0  0  0  0  0  0  0  0
    1.6114   -1.3466   15.2499 N   0  0  0  0  0  0  0  0  0  0  0  0
    2.0049   -1.9045   15.9990 H   0  0  0  0  0  0  0  0  0  0  0  0
    2.5421   -0.4493   14.6958 C   0  0  0  0  0  0  0  0  0  0  0  0
    2.2180    0.3329   13.7045 N   0  0  0  0  0  0  0  0  0  0  0  0
    3.1409    1.2333   13.2197 C   0  0  0  0  0  0  0  0  0  0  0  0
    2.6800    2.1249   12.1402 C   0  0  0  0  0  0  0  0  0  0  0  0
    3.5860    2.5970   11.1579 C   0  0  0  0  0  0  0  0  0  0  0  0
    4.6230    2.2948   11.1888 H   0  0  0  0  0  0  0  0  0  0  0  0
    3.1597    3.4404   10.1116 C   0  0  0  0  0  0  0  0  0  0  0  0
    3.8699    3.7754    9.3712 H   0  0  0  0  0  0  0  0  0  0  0  0
    1.8059    3.8353   10.0127 C   0  0  0  0  0  0  0  0  0  0  0  0
    0.9125    3.3659   11.0127 C   0  0  0  0  0  0  0  0  0  0  0  0
    1.3290    2.5336   12.0629 C   0  0  0  0  0  0  0  0  0  0  0  0
    0.6158    2.2058   12.8059 H   0  0  0  0  0  0  0  0  0  0  0  0
   -0.3071    3.9062   10.6464 N   0  0  0  0  0  0  0  0  0  0  0  0
   -1.1769    3.7806   11.1428 H   0  0  0  0  0  0  0  0  0  0  0  0
   -0.2600    4.6570    9.5173 N   0  0  0  0  0  0  0  0  0  0  0  0
    0.9968    4.6274    9.1323 C   0  0  0  0  0  0  0  0  0  0  0  0
    1.2945    5.1655    8.2432 H   0  0  0  0  0  0  0  0  0  0  0  0
    4.4209    1.3202   13.7063 C   0  0  0  0  0  0  0  0  0  0  0  0
    5.1682    2.0297   13.3683 H   0  0  0  0  0  0  0  0  0  0  0  0
    4.7531    0.5146   14.7394 N   0  0  0  0  0  0  0  0  0  0  0  0
    3.8353   -0.4071   15.2933 C   0  0  0  0  0  0  0  0  0  0  0  0
    4.3861   -1.0488   16.3235 N   0  0  0  0  0  0  0  0  0  0  0  0
    5.6532   -0.4966   16.4665 C   0  0  0  0  0  0  0  0  0  0  0  0
    6.2849   -0.8034   17.2819 H   0  0  0  0  0  0  0  0  0  0  0  0
    5.9079    0.4174   15.4850 C   0  0  0  0  0  0  0  0  0  0  0  0
    6.7597    1.0373   15.2580 H   0  0  0  0  0  0  0  0  0  0  0  0
   -0.3732   -2.5842   15.7816 C   0  0  0  0  0  0  0  0  0  0  0  0
    0.2103   -3.1774   16.4723 H   0  0  0  0  0  0  0  0  0  0  0  0
   -1.7504   -2.8425   15.6627 C   0  0  0  0  0  0  0  0  0  0  0  0
   -2.1936   -3.6279   16.2577 H   0  0  0  0  0  0  0  0  0  0  0  0
   -4.4760   -2.5030   13.3047 C   0  0  0  0  0  0  0  0  0  0  0  0
   -5.1073   -1.6496   13.0750 H   0  0  0  0  0  0  0  0  0  0  0  0
   -3.6914   -2.5204   12.5475 H   0  0  0  0  0  0  0  0  0  0  0  0
   -5.2861   -3.8091   13.2288 C   0  0  0  0  0  0  0  0  0  0  0  0
   -4.5872   -4.6451   13.2398 H   0  0  0  0  0  0  0  0  0  0  0  0
   -5.8074   -3.8557   12.2705 H   0  0  0  0  0  0  0  0  0  0  0  0
  1  2  1  0
  2  3  1  0
  3 56  1  0
  3  4  1  0
  3  8  1  0
  4  5  1  0
  4  6  1  0
  4  7  1  0
  8  9  1  0
  8 10  1  0
  8 11  1  0
 11 12  1  0
 11 13  1  0
 11 14  1  0
 14 15  1  0
 14 53  1  0
 15 51  1  0
 15 16  2  0
 16 17  1  0
 16 18  1  0
 18 19  1  0
 18 20  2  0
 20 21  1  0
 20 49  1  0
 21 22  1  0
 21 23  1  0
 23 43  1  0
 23 24  2  0
 24 25  1  0
 25 26  1  0
 25 40  2  0
 26 33  1  0
 26 27  2  0
 27 28  1  0
 27 29  1  0
 29 30  1  0
 29 31  2  0
 31 38  1  0
 31 32  1  0
 32 33  2  0
 32 35  1  0
 33 34  1  0
 35 36  1  0
 35 37  1  0
 37 38  2  0
 38 39  1  0
 40 41  1  0
 40 42  1  0
 42 47  1  0
 42 43  1  0
 43 44  2  0
 44 45  1  0
 45 46  1  0
 45 47  2  0
 47 48  1  0
 49 50  1  0
 49 51  2  0
 51 52  1  0
 53 54  1  0
 53 55  1  0
 53 56  1  0
 56 57  1  0
 56 58  1  0
M  END
$$$$
lig_CHEMBL3265014
     RDKit          3D

 52 55  0  0  1  0  0  0  0  0999 V2000
    6.3036   -0.8029   17.2322 H   0  0  0  0  0  0  0  0  0  0  0  0
    5.6605   -0.4849   16.4279 C   0  0  0  0  0  0  0  0  0  0  0  0
    5.9027    0.4171   15.4307 C   0  0  0  0  0  0  0  0  0  0  0  0
    6.7588    1.0255   15.1830 H   0  0  0  0  0  0  0  0  0  0  0  0
    4.7376    0.5059   14.6944 N   0  0  0  0  0  0  0  0  0  0  0  0
    3.8251   -0.4062   15.2666 C   0  0  0  0  0  0  0  0  0  0  0  0
    4.3902   -1.0322   16.2993 N   0  0  0  0  0  0  0  0  0  0  0  0
    2.5310   -0.4740   14.6739 C   0  0  0  0  0  0  0  0  0  0  0  0
    1.6193   -1.3836   15.2425 N   0  0  0  0  0  0  0  0  0  0  0  0
    2.0423   -1.9495   15.9690 H   0  0  0  0  0  0  0  0  0  0  0  0
    0.2457   -1.6184   15.0494 C   0  0  0  0  0  0  0  0  0  0  0  0
   -0.3312   -2.6706   15.7926 C   0  0  0  0  0  0  0  0  0  0  0  0
    0.2764   -3.2647   16.4615 H   0  0  0  0  0  0  0  0  0  0  0  0
   -1.7032   -2.9596   15.6855 C   0  0  0  0  0  0  0  0  0  0  0  0
   -2.1282   -3.7605   16.2743 H   0  0  0  0  0  0  0  0  0  0  0  0
   -2.5204   -2.2019   14.8257 C   0  0  0  0  0  0  0  0  0  0  0  0
   -3.8579   -2.4839   14.7369 O   0  0  0  0  0  0  0  0  0  0  0  0
   -4.1937   -3.2465   13.5899 C   0  0  0  0  0  0  0  0  0  0  0  0
   -5.2625   -3.4581   13.5945 H   0  0  0  0  0  0  0  0  0  0  0  0
   -3.9605   -2.7158   12.6651 H   0  0  0  0  0  0  0  0  0  0  0  0
   -3.6625   -4.1990   13.5894 H   0  0  0  0  0  0  0  0  0  0  0  0
   -1.9716   -1.1402   14.0774 C   0  0  0  0  0  0  0  0  0  0  0  0
   -2.8352   -0.4218   13.2773 O   0  0  0  0  0  0  0  0  0  0  0  0
   -2.2775    0.5875   12.4530 C   0  0  0  0  0  0  0  0  0  0  0  0
   -3.0653    1.0508   11.8604 H   0  0  0  0  0  0  0  0  0  0  0  0
   -1.8087    1.3595   13.0610 H   0  0  0  0  0  0  0  0  0  0  0  0
   -1.5450    0.1808   11.7549 H   0  0  0  0  0  0  0  0  0  0  0  0
   -0.5867   -0.8603   14.1943 C   0  0  0  0  0  0  0  0  0  0  0  0
   -0.1673   -0.0464   13.6341 H   0  0  0  0  0  0  0  0  0  0  0  0
    2.2004    0.2851   13.6673 N   0  0  0  0  0  0  0  0  0  0  0  0
    3.1138    1.1880   13.1665 C   0  0  0  0  0  0  0  0  0  0  0  0
    2.6431    2.0785   12.0885 C   0  0  0  0  0  0  0  0  0  0  0  0
    3.5378    2.5232   11.0921 C   0  0  0  0  0  0  0  0  0  0  0  0
    4.5611    2.1795   11.0824 H   0  0  0  0  0  0  0  0  0  0  0  0
    3.1249    3.4291   10.1040 C   0  0  0  0  0  0  0  0  0  0  0  0
    3.8404    3.7646    9.3675 H   0  0  0  0  0  0  0  0  0  0  0  0
    1.8045    3.9211   10.0819 C   0  0  0  0  0  0  0  0  0  0  0  0
    1.4631    4.9831    9.0677 C   0  0  0  0  0  0  0  0  0  0  0  0
    2.3279    5.7370    8.6287 O   0  0  0  0  0  0  0  0  0  0  0  0
    0.2064    5.0284    8.6272 N   0  0  0  0  0  0  0  0  0  0  0  0
   -0.4799    4.4174    9.0489 H   0  0  0  0  0  0  0  0  0  0  0  0
   -0.0589    5.7192    7.9418 H   0  0  0  0  0  0  0  0  0  0  0  0
    0.8789    3.4732   11.0663 C   0  0  0  0  0  0  0  0  0  0  0  0
   -0.4005    3.9972   11.0275 O   0  0  0  0  0  0  0  0  0  0  0  0
   -1.2626    3.9423   12.1562 C   0  0  0  0  0  0  0  0  0  0  0  0
   -1.7355    4.9205   12.2824 H   0  0  0  0  0  0  0  0  0  0  0  0
   -2.0661    3.2359   11.9483 H   0  0  0  0  0  0  0  0  0  0  0  0
   -0.7986    3.6833   13.1040 H   0  0  0  0  0  0  0  0  0  0  0  0
    1.3092    2.5431   12.0476 C   0  0  0  0  0  0  0  0  0  0  0  0
    0.6302    2.1898   12.8078 H   0  0  0  0  0  0  0  0  0  0  0  0
    4.3952    1.2919   13.6482 C   0  0  0  0  0  0  0  0  0  0  0  0
    5.1324    2.0049   13.2965 H   0  0  0  0  0  0  0  0  0  0  0  0
  1  2  1  0
  2  7  1  0
  2  3  2  0
  3  4  1  0
  3  5  1  0
  5 51  1  0
  5  6  1  0
  6  7  2  0
  6  8  1  0
  8  9  1  0
  8 30  2  0
  9 10  1  0
  9 11  1  0
 11 28  1  0
 11 12  2  0
 12 13  1  0
 12 14  1  0
 14 15  1  0
 14 16  2  0
 16 17  1  0
 16 22  1  0
 17 18  1  0
 18 19  1  0
 18 20  1  0
 18 21  1  0
 22 23  1  0
 22 28  2  0
 23 24  1  0
 24 25  1  0
 24 26  1  0
 24 27  1  0
 28 29  1  0
 30 31  1  0
 31 32  1  0
 31 51  2  0
 32 49  1  0
 32 33  2  0
 33 34  1  0
 33 35  1  0
 35 36  1  0
 35 37  2  0
 37 38  1  0
 37 43  1  0
 38 39  2  0
 38 40  1  0
 40 41  1  0
 40 42  1  0
 43 44  1  0
 43 49  2  0
 44 45  1  0
 45 46  1  0
 45 47  1  0
 45 48  1  0
 49 50  1  0
 51 52  1  0
M  END
$$$$
lig_CHEMBL3265030_n
     RDKit          3D

 52 57  0  0  1  0  0  0  0  0999 V2000
   -6.6998   -2.4710   14.6733 O   0  0  0  0  0  0  0  0  0  0  0  0
   -5.7424   -2.8893   15.6294 C   0  0  0  0  0  0  0  0  0  0  0  0
   -6.5358   -3.4937   16.7838 C   0  0  0  0  0  0  0  0  0  0  0  0
   -4.5521   -3.6669   15.0516 C   0  0  0  0  0  0  0  0  0  0  0  0
   -3.9358   -2.3608   14.8208 N   0  0  0  0  0  0  0  0  0  0  0  0
   -2.4445   -2.1664   14.8560 C   0  0  0  0  0  0  0  0  0  0  0  0
   -1.6326   -2.9024   15.7349 C   0  0  0  0  0  0  0  0  0  0  0  0
   -0.2548   -2.6120   15.8010 C   0  0  0  0  0  0  0  0  0  0  0  0
    0.3103   -1.5909   15.0110 C   0  0  0  0  0  0  0  0  0  0  0  0
    1.6743   -1.3503   15.2133 N   0  0  0  0  0  0  0  0  0  0  0  0
    2.5854   -0.4484   14.6445 C   0  0  0  0  0  0  0  0  0  0  0  0
    2.2573    0.3288   13.6527 N   0  0  0  0  0  0  0  0  0  0  0  0
    3.1805    1.2323   13.1678 C   0  0  0  0  0  0  0  0  0  0  0  0
    2.7060    2.1245   12.0914 C   0  0  0  0  0  0  0  0  0  0  0  0
    3.5770    2.5567   11.0605 C   0  0  0  0  0  0  0  0  0  0  0  0
    3.1263    3.3959   10.0203 C   0  0  0  0  0  0  0  0  0  0  0  0
    1.7836    3.8306    9.9785 C   0  0  0  0  0  0  0  0  0  0  0  0
    0.9251    3.4017   11.0244 C   0  0  0  0  0  0  0  0  0  0  0  0
    1.3674    2.5742   12.0679 C   0  0  0  0  0  0  0  0  0  0  0  0
   -0.2923    3.9737   10.7084 N   0  0  0  0  0  0  0  0  0  0  0  0
   -0.2719    4.7118    9.5704 N   0  0  0  0  0  0  0  0  0  0  0  0
    0.9622    4.6413    9.1298 C   0  0  0  0  0  0  0  0  0  0  0  0
    4.4617    1.3238   13.6558 C   0  0  0  0  0  0  0  0  0  0  0  0
    4.7902    0.5217   14.6972 N   0  0  0  0  0  0  0  0  0  0  0  0
    3.8720   -0.4020   15.2439 C   0  0  0  0  0  0  0  0  0  0  0  0
    4.4125   -1.0410   16.2788 N   0  0  0  0  0  0  0  0  0  0  0  0
    5.6725   -0.4849   16.4414 C   0  0  0  0  0  0  0  0  0  0  0  0
    5.9398    0.4226   15.4541 C   0  0  0  0  0  0  0  0  0  0  0  0
   -0.5184   -0.8756   14.1129 C   0  0  0  0  0  0  0  0  0  0  0  0
   -1.8939   -1.1653   14.0344 C   0  0  0  0  0  0  0  0  0  0  0  0
   -4.6901   -1.8316   15.9523 C   0  0  0  0  0  0  0  0  0  0  0  0
   -7.3216   -3.1725   14.5193 H   0  0  0  0  0  0  0  0  0  0  0  0
   -5.8424   -3.8397   17.5645 H   0  0  0  0  0  0  0  0  0  0  0  0
   -7.2099   -2.7324   17.2035 H   0  0  0  0  0  0  0  0  0  0  0  0
   -7.1277   -4.3447   16.4158 H   0  0  0  0  0  0  0  0  0  0  0  0
   -4.0234   -4.3083   15.7721 H   0  0  0  0  0  0  0  0  0  0  0  0
   -4.7727   -4.2430   14.1409 H   0  0  0  0  0  0  0  0  0  0  0  0
   -2.0582   -3.6802   16.3516 H   0  0  0  0  0  0  0  0  0  0  0  0
    0.3773   -3.1806   16.4671 H   0  0  0  0  0  0  0  0  0  0  0  0
    2.0835   -1.9439   15.9063 H   0  0  0  0  0  0  0  0  0  0  0  0
    4.6084    2.2365   11.0716 H   0  0  0  0  0  0  0  0  0  0  0  0
    3.8144    3.7088    9.2489 H   0  0  0  0  0  0  0  0  0  0  0  0
    0.6849    2.2816   12.8521 H   0  0  0  0  0  0  0  0  0  0  0  0
   -1.1130    3.8545   11.2672 H   0  0  0  0  0  0  0  0  0  0  0  0
    1.3155    5.1344    8.2363 H   0  0  0  0  0  0  0  0  0  0  0  0
    5.1785    2.0080   13.2263 H   0  0  0  0  0  0  0  0  0  0  0  0
    6.3527   -0.7355   17.2420 H   0  0  0  0  0  0  0  0  0  0  0  0
    6.8660    0.9556   15.2978 H   0  0  0  0  0  0  0  0  0  0  0  0
   -0.0939   -0.1053   13.4861 H   0  0  0  0  0  0  0  0  0  0  0  0
   -2.5241   -0.6214   13.3463 H   0  0  0  0  0  0  0  0  0  0  0  0
   -5.0292   -0.7917   15.8358 H   0  0  0  0  0  0  0  0  0  0  0  0
   -4.2005   -1.9503   16.9302 H   0  0  0  0  0  0  0  0  0  0  0  0
  1  2  1  0
  2 31  1  0
  2  3  1  0
  2  4  1  0
  4  5  1  0
  5  6  1  0
  5 31  1  0
  6 30  1  0
  6  7  2  0
  7  8  1  0
  8  9  2  0
  9 10  1  0
  9 29  1  0
 10 11  1  0
 11 25  1  0
 11 12  2  0
 12 13  1  0
 13 14  1  0
 13 23  2  0
 14 19  1  0
 14 15  2  0
 15 16  1  0
 16 17  2  0
 17 22  1  0
 17 18  1  0
 18 19  2  0
 18 20  1  0
 20 21  1  0
 21 22  2  0
 23 24  1  0
 24 28  1  0
 24 25  1  0
 25 26  2  0
 26 27  1  0
 27 28  2  0
 29 30  2  0
  1 32  1  0
  3 33  1  0
  3 34  1  0
  3 35  1  0
  4 36  1  0
  4 37  1  0
  7 38  1  0
  8 39  1  0
 10 40  1  0
 15 41  1  0
 16 42  1  0
 19 43  1  0
 20 44  1  0
 22 45  1  0
 23 46  1  0
 27 47  1  0
 28 48  1  0
 29 49  1  0
 30 50  1  0
 31 51  1  0
 31 52  1  0
M  END
$$$$
lig_CHEMBL3265035
     RDKit          3D

 51 55  0  0  1  0  0  0  0  0999 V2000
   -7.0106   -2.0038   14.6987 O   0  0  0  0  0  0  0  0  0  0  0  0
   -6.2150   -2.4248   15.7830 C   0  0  0  0  0  0  0  0  0  0  0  0
   -4.7813   -1.8634   15.6663 C   0  0  0  0  0  0  0  0  0  0  0  0
   -3.9102   -2.6264   14.7337 N   0  0  0  0  0  0  0  0  0  0  0  0
   -2.4645   -2.2151   14.8453 C   0  0  0  0  0  0  0  0  0  0  0  0
   -1.9482   -1.1353   14.0959 C   0  0  0  0  0  0  0  0  0  0  0  0
   -0.5818   -0.8119   14.2054 C   0  0  0  0  0  0  0  0  0  0  0  0
    0.2653   -1.5648   15.0539 C   0  0  0  0  0  0  0  0  0  0  0  0
    1.6335   -1.3276   15.2334 N   0  0  0  0  0  0  0  0  0  0  0  0
    2.5423   -0.4311   14.6561 C   0  0  0  0  0  0  0  0  0  0  0  0
    2.2120    0.3476   13.6644 N   0  0  0  0  0  0  0  0  0  0  0  0
    3.1417    1.2448   13.1721 C   0  0  0  0  0  0  0  0  0  0  0  0
    2.6788    2.1417   12.0925 C   0  0  0  0  0  0  0  0  0  0  0  0
    3.5623    2.5546   11.0626 C   0  0  0  0  0  0  0  0  0  0  0  0
    3.1328    3.4019   10.0232 C   0  0  0  0  0  0  0  0  0  0  0  0
    1.8035    3.8762    9.9823 C   0  0  0  0  0  0  0  0  0  0  0  0
    0.9332    3.4689   11.0303 C   0  0  0  0  0  0  0  0  0  0  0  0
    1.3541    2.6260   12.0692 C   0  0  0  0  0  0  0  0  0  0  0  0
   -0.2627    4.0888   10.7188 N   0  0  0  0  0  0  0  0  0  0  0  0
   -0.2202    4.8270    9.5791 N   0  0  0  0  0  0  0  0  0  0  0  0
    1.0080    4.7117    9.1328 C   0  0  0  0  0  0  0  0  0  0  0  0
    4.4247    1.3273   13.6532 C   0  0  0  0  0  0  0  0  0  0  0  0
    4.7577    0.5204   14.6899 N   0  0  0  0  0  0  0  0  0  0  0  0
    3.8381   -0.4022   15.2425 C   0  0  0  0  0  0  0  0  0  0  0  0
    4.3875   -1.0436   16.2719 N   0  0  0  0  0  0  0  0  0  0  0  0
    5.6463   -0.4886   16.4229 C   0  0  0  0  0  0  0  0  0  0  0  0
    5.9148    0.4188   15.4376 C   0  0  0  0  0  0  0  0  0  0  0  0
   -0.2836   -2.6221   15.8115 C   0  0  0  0  0  0  0  0  0  0  0  0
   -1.6487   -2.9459   15.7110 C   0  0  0  0  0  0  0  0  0  0  0  0
   -4.3816   -2.7003   13.3289 C   0  0  0  0  0  0  0  0  0  0  0  0
   -7.8864   -2.3601   14.7909 H   0  0  0  0  0  0  0  0  0  0  0  0
   -6.6662   -2.0678   16.7205 H   0  0  0  0  0  0  0  0  0  0  0  0
   -6.1716   -3.5239   15.7922 H   0  0  0  0  0  0  0  0  0  0  0  0
   -4.8439   -0.8245   15.3102 H   0  0  0  0  0  0  0  0  0  0  0  0
   -4.3198   -1.8816   16.6646 H   0  0  0  0  0  0  0  0  0  0  0  0
   -2.5941   -0.5637   13.4459 H   0  0  0  0  0  0  0  0  0  0  0  0
   -0.1782    0.0145   13.6393 H   0  0  0  0  0  0  0  0  0  0  0  0
    2.0503   -1.9246   15.9189 H   0  0  0  0  0  0  0  0  0  0  0  0
    4.5864    2.2118   11.0759 H   0  0  0  0  0  0  0  0  0  0  0  0
    3.8276    3.6921    9.2490 H   0  0  0  0  0  0  0  0  0  0  0  0
    0.6637    2.3476   12.8517 H   0  0  0  0  0  0  0  0  0  0  0  0
   -1.0847    4.0017   11.2816 H   0  0  0  0  0  0  0  0  0  0  0  0
    1.3744    5.1880    8.2354 H   0  0  0  0  0  0  0  0  0  0  0  0
    5.1420    2.0097   13.2217 H   0  0  0  0  0  0  0  0  0  0  0  0
    6.3304   -0.7411   17.2196 H   0  0  0  0  0  0  0  0  0  0  0  0
    6.8421    0.9484   15.2762 H   0  0  0  0  0  0  0  0  0  0  0  0
    0.3519   -3.1888   16.4758 H   0  0  0  0  0  0  0  0  0  0  0  0
   -2.0620   -3.7526   16.2982 H   0  0  0  0  0  0  0  0  0  0  0  0
   -3.6658   -3.2842   12.7316 H   0  0  0  0  0  0  0  0  0  0  0  0
   -5.3675   -3.1871   13.2983 H   0  0  0  0  0  0  0  0  0  0  0  0
   -4.4613   -1.6842   12.9151 H   0  0  0  0  0  0  0  0  0  0  0  0
  1  2  1  0
  2  3  1  0
  3  4  1  0
  4  5  1  0
  4 30  1  0
  5 29  2  0
  5  6  1  0
  6  7  2  0
  7  8  1  0
  8  9  1  0
  8 28  2  0
  9 10  1  0
 10 24  1  0
 10 11  2  0
 11 12  1  0
 12 13  1  0
 12 22  2  0
 13 18  1  0
 13 14  2  0
 14 15  1  0
 15 16  2  0
 16 21  1  0
 16 17  1  0
 17 18  2  0
 17 19  1  0
 19 20  1  0
 20 21  2  0
 22 23  1  0
 23 27  1  0
 23 24  1  0
 24 25  2  0
 25 26  1  0
 26 27  2  0
 28 29  1  0
  1 31  1  0
  2 32  1  0
  2 33  1  0
  3 34  1  0
  3 35  1  0
  6 36  1  0
  7 37  1  0
  9 38  1  0
 14 39  1  0
 15 40  1  0
 18 41  1  0
 19 42  1  0
 21 43  1  0
 22 44  1  0
 26 45  1  0
 27 46  1  0
 28 47  1  0
 29 48  1  0
 30 49  1  0
 30 50  1  0
 30 51  1  0
M  END
$$$$
lig_CHEMBL3265029
     RDKit          3D

 43 47  0  0  1  0  0  0  0  0999 V2000
    1.3010    5.1789    8.2347 H   0  0  0  0  0  0  0  0  0  0  0  0
    0.9994    4.6452    9.1238 C   0  0  0  0  0  0  0  0  0  0  0  0
   -0.2501    4.6853    9.5199 N   0  0  0  0  0  0  0  0  0  0  0  0
   -0.2937    3.9340   10.6524 N   0  0  0  0  0  0  0  0  0  0  0  0
   -1.1613    3.8240   11.1579 H   0  0  0  0  0  0  0  0  0  0  0  0
    0.9222    3.3811   11.0044 C   0  0  0  0  0  0  0  0  0  0  0  0
    1.3466    2.5482   12.0487 C   0  0  0  0  0  0  0  0  0  0  0  0
    0.6444    2.2298   12.8047 H   0  0  0  0  0  0  0  0  0  0  0  0
    2.6942    2.1272   12.1084 C   0  0  0  0  0  0  0  0  0  0  0  0
    3.1524    1.2360   13.1888 C   0  0  0  0  0  0  0  0  0  0  0  0
    4.4270    1.3346   13.6855 C   0  0  0  0  0  0  0  0  0  0  0  0
    5.1682    2.0561   13.3596 H   0  0  0  0  0  0  0  0  0  0  0  0
    4.7580    0.5225   14.7126 N   0  0  0  0  0  0  0  0  0  0  0  0
    3.8409   -0.4055   15.2573 C   0  0  0  0  0  0  0  0  0  0  0  0
    4.3979   -1.0531   16.2813 N   0  0  0  0  0  0  0  0  0  0  0  0
    5.6644   -0.4996   16.4289 C   0  0  0  0  0  0  0  0  0  0  0  0
    6.3010   -0.8027   17.2403 H   0  0  0  0  0  0  0  0  0  0  0  0
    5.9170    0.4216   15.4546 C   0  0  0  0  0  0  0  0  0  0  0  0
    6.7669    1.0474   15.2362 H   0  0  0  0  0  0  0  0  0  0  0  0
    2.5456   -0.4464   14.6637 C   0  0  0  0  0  0  0  0  0  0  0  0
    1.6117   -1.3389   15.2205 N   0  0  0  0  0  0  0  0  0  0  0  0
    2.0115   -1.9018   15.9620 H   0  0  0  0  0  0  0  0  0  0  0  0
    0.2341   -1.5460   15.0144 C   0  0  0  0  0  0  0  0  0  0  0  0
   -0.3679   -2.5608   15.7928 C   0  0  0  0  0  0  0  0  0  0  0  0
    0.2250   -3.1299   16.4940 H   0  0  0  0  0  0  0  0  0  0  0  0
   -1.7437   -2.8382   15.6828 C   0  0  0  0  0  0  0  0  0  0  0  0
   -2.1839   -3.6102   16.2968 H   0  0  0  0  0  0  0  0  0  0  0  0
   -2.5411   -2.1153   14.7769 C   0  0  0  0  0  0  0  0  0  0  0  0
   -3.8773   -2.3925   14.6754 O   0  0  0  0  0  0  0  0  0  0  0  0
   -4.2176   -3.1060   13.4994 C   0  0  0  0  0  0  0  0  0  0  0  0
   -5.2941   -3.2811   13.4788 H   0  0  0  0  0  0  0  0  0  0  0  0
   -3.7234   -4.0788   13.4762 H   0  0  0  0  0  0  0  0  0  0  0  0
   -3.9477   -2.5563   12.5966 H   0  0  0  0  0  0  0  0  0  0  0  0
   -1.9541   -1.0962   13.9987 C   0  0  0  0  0  0  0  0  0  0  0  0
   -2.5585   -0.5253   13.3081 H   0  0  0  0  0  0  0  0  0  0  0  0
   -0.5787   -0.8105   14.1169 C   0  0  0  0  0  0  0  0  0  0  0  0
   -0.1854   -0.0164   13.5042 H   0  0  0  0  0  0  0  0  0  0  0  0
    2.2269    0.3317   13.6684 N   0  0  0  0  0  0  0  0  0  0  0  0
    3.5906    2.5895   11.1140 C   0  0  0  0  0  0  0  0  0  0  0  0
    4.6241    2.2848   11.1267 H   0  0  0  0  0  0  0  0  0  0  0  0
    3.1553    3.4350   10.0721 C   0  0  0  0  0  0  0  0  0  0  0  0
    3.8524    3.7692    9.3159 H   0  0  0  0  0  0  0  0  0  0  0  0
    1.8051    3.8422    9.9936 C   0  0  0  0  0  0  0  0  0  0  0  0
  1  2  1  0
  2 43  1  0
  2  3  2  0
  3  4  1  0
  4  5  1  0
  4  6  1  0
  6 43  2  0
  6  7  1  0
  7  8  1  0
  7  9  2  0
  9 10  1  0
  9 39  1  0
 10 38  1  0
 10 11  2  0
 11 12  1  0
 11 13  1  0
 13 18  1  0
 13 14  1  0
 14 15  2  0
 14 20  1  0
 15 16  1  0
 16 17  1  0
 16 18  2  0
 18 19  1  0
 20 21  1  0
 20 38  2  0
 21 22  1  0
 21 23  1  0
 23 36  1  0
 23 24  2  0
 24 25  1  0
 24 26  1  0
 26 27  1  0
 26 28  2  0
 28 29  1  0
 28 34  1  0
 29 30  1  0
 30 31  1  0
 30 32  1  0
 30 33  1  0
 34 35  1  0
 34 36  2  0
 36 37  1  0
 39 40  1  0
 39 41  2  0
 41 42  1  0
 41 43  1  0
M  END
$$$$
